  Processing Data Dictionary (Energy+.idd) File -- Complete
  Maximum number of Alpha Args=        4500
  Maximum number of Numeric Args=       21040
  Number of Object Definitions=         689
  Number of Section Definitions=           2
  Total Number of Alpha Fields=       16712
  Total Number of Numeric Fields=       38446
  Total Number of Fields=       55158
  Processing Input Data File (in.idf) -- Start
      1 !-Generator IDFEditor 1.36a
      2 !-Option OriginalOrderTop UseSpecialFormat
      3 !-NOTE: All comments with '!-' are ignored by the IDFEditor and are generated automatically.
      4 !-      Use '!' comments if they need to be retained when using the IDFEditor.
      5 ! 5ZoneSteamBaseboard.idf
      6 ! Basic file description:  1 story building divided into 4 exterior and one interior conditioned zones and return plenum.
      7 !
      8 ! Highlights:              Steam Loop for Heating with a Steam Coil, Boiler, and Condensate Pump
      9 !
     10 ! Simulation Location/Run: CHICAGO_IL_USA TMY3, 2 design days, 2 run periods,
     11 !                          Run Control executes the run periods using the weather file
     12 !
     13 ! Location:                Chicago, IL
     14 !
     15 ! Design Days:             CHICAGO_IL_USA Annual Heating 99% Design Conditions DB, MaxDB= -16.6°C
     16 !                          CHICAGO_IL_USA Annual Cooling 1% Design Conditions, MaxDB=  31.6°C MCWB=  23.0°C
     17 !
     18 ! Run Period (Weather File): Winter 1/15 - 1/21, transition 4/15 - 4/21, CHICAGO_IL_USA TMY3
     19 !
     20 ! Run Control:             Zone and System sizing with weather file run control and 2 design day runs
     21 !
     22 ! Building: Single floor rectangular building 100 ft x 50 ft. 5 zones - 4 exterior, 1 interior, zone height 8 feet.
     23 !           Exterior zone depth is 12 feet. There is a 2 foot high return plenum: the overall building height is
     24 !           10 feet. There are windows on all 4 facades; the south and north facades have glass doors.
     25 !           The south facing glass is shaded by overhangs. The walls are woodshingle over plywood, R11 insulation,
     26 !           and gypboard. The roof is a gravel built up roof with R-3 mineral board insulation and plywood sheathing.
     27 !           The windows are of various single and double pane construction with 3mm and 6mm glass and either 6mm or
     28 !           13mm argon or air gap.  The window to wall ratio is approxomately 0.29.
     29 !           The south wall and door have overhangs.
     30 !
     31 !           The building is oriented 30 degrees east of north.
     32 !
     33 ! Floor Area:        463.6 m2 (5000 ft2)
     34 ! Number of Stories: 1
     35 !
     36 ! Zone Description Details:
     37 !
     38 !      (0,15.2,0)                      (30.5,15.2,0)
     39 !          ______   ________                ____
     40 !         |      ***        ****************    |
     41 !         |                                     |
     42 !         |                    (26.8,11.6,0)    |
     43 !         |_____________________________________|
     44 !         *    |(3.7,11.6,0)               |    *
     45 !         *    |                           |    *
     46 !         *    |                           |    *
     47 !         *    |               (26.8,3.7,0)|    *
     48 !         *____|___________________________|____*
     49 !         |     (3.7,3.7,0)                     |
     50 !         |                                     |
     51 !         |                                     |
     52 !         |____******************___***_________|
     53 !          |       Overhang        |   |
     54 !          |_______________________|   |   window/door = *
     55 !                                  |___|
     56 !
     57 !      (0,0,0)                            (30.5,0,0)
     58 !
     59 ! Internal gains description:     lighting is 1.5 watts/ft2, office equip is 1.0 watts/ft2. There is 1 occupant
     60 !                                 per 100 ft2 of floor area. The infiltration is 0.25 air changes per hour.
     61 !
     62 ! Interzone Surfaces:             6 interzone surfaces (see diagram)
     63 ! Internal Mass:                  None
     64 ! People:                         50
     65 ! Lights:                         7500 W
     66 ! Windows:                        4 ea.: 1) Double pane clear, 3mm glass, 13mm air gap
     67 !                                        2) Double pane clear, 3mm glass, 13mm argon gap
     68 !                                        3) Double pane clear, 6mm glass, 6mm air gap
     69 !                                        4) Double pane lowE,  6mm lowE glass outside, 6mm air gap, 6mm clear glass
     70 !
     71 ! Doors:                          2 ea.:    Single pane grey,  3mm glass
     72 !
     73 ! Detached Shading:               None
     74 ! Daylight:                       None
     75 ! Natural Ventilation:            None
     76 ! Compact Schedules:              Yes
     77 !
     78 ! HVAC:                           Standard VAV system with outside air economizer, Steam reheat coils,
     79 !                                 Steam Baseboard heaters, and Central chilled water cooling coil.
     80 !                                 Central Plant is single Steam boiler, electric compression chiller
     81 !                                 with air cooled condenser. All equipment is autosized.
     82 !
     83 !
     84 ! Zonal Equipment:                AirTerminal:SingleDuct:VAV:Reheat (Space2-1, Space4-1, and space5-1)
     85 !                                 AirTerminal:SingleDuct:VAV:NoReheat with steam baseboard heater (Space1-1 and Space3-1)
     86 ! Central Air Handling Equipment: Yes
     87 ! System Equipment Autosize:      Yes
     88 ! Purchased Cooling:              None
     89 ! Purchased Heating:              None
     90 ! Coils:                          Coil:Cooling:Water, Coil:Heating:Steam
     91 ! Pumps:                          Pump:VariableSpeed
     92 ! Boilers:                        Boiler:Steam
     93 ! Chillers:                       Chiller:Electric
     94 !
     95 ! Results:
     96 ! Standard Reports:               None
     97 ! Timestep or Hourly Variables:   Hourly
     98 ! Time bins Report:               None
     99 ! HTML Report:                    None
    100 ! Environmental Emissions:        None
    101 ! Utility Tariffs:                None
    102 
    103   Version,8.0;
    104 
    105   Building,
    106     Building,                !- Name
    107     30.,                     !- North Axis {deg}
    108     City,                    !- Terrain
    109     0.04,                    !- Loads Convergence Tolerance Value
    110     0.4,                     !- Temperature Convergence Tolerance Value {deltaC}
    111     FullExterior,            !- Solar Distribution
    112     ,                        !- Maximum Number of Warmup Days
    113     6;                       !- Minimum Number of Warmup Days
    114 
    115   Timestep,4;
    116 
    117   SurfaceConvectionAlgorithm:Inside,Simple;
    118 
    119   SurfaceConvectionAlgorithm:Outside,SimpleCombined;
    120 
    121   HeatBalanceAlgorithm,ConductionTransferFunction;
    122 
    123   SimulationControl,
    124     Yes,                     !- Do Zone Sizing Calculation
    125     Yes,                     !- Do System Sizing Calculation
    126     No,                      !- Do Plant Sizing Calculation
    127     Yes,                     !- Run Simulation for Sizing Periods
    128     Yes;                     !- Run Simulation for Weather File Run Periods
    129 
    130   RunPeriod,
    131     ,                        !- Name
    132     1,                       !- Begin Month
    133     15,                      !- Begin Day of Month
    134     4,                       !- End Month
    135     15,                      !- End Day of Month
    136     UseWeatherFile,          !- Day of Week for Start Day
    137     No,                      !- Use Weather File Holidays and Special Days
    138     Yes,                     !- Use Weather File Daylight Saving Period
    139     ,                        !- Apply Weekend Holiday Rule
    140     ,                        !- Use Weather File Rain Indicators
    141     ;                        !- Use Weather File Snow Indicators
    142 
    143   Site:Location,
    144     CHICAGO_IL_USA TMY2-94846,  !- Name
    145     41.98,                   !- Latitude {deg}
    146     -87.92,                  !- Longitude {deg}
    147     -6.00,                   !- Time Zone {hr}
    148     201.00;                  !- Elevation {m}
    149 
    150 ! CHICAGO_IL_USA Annual Heating 99% Design Conditions DB, MaxDB= -16.6°C
    151 
    152   SizingPeriod:DesignDay,
    153     CHICAGO_IL_USA Annual Heating 99% Design Conditions DB,  !- Name
    154     1,                       !- Month
    155     21,                      !- Day of Month
    156     WinterDesignDay,         !- Day Type
    157     -16.6,                   !- Maximum Dry-Bulb Temperature {C}
    158     0.0,                     !- Daily Dry-Bulb Temperature Range {deltaC}
    159     ,                        !- Dry-Bulb Temperature Range Modifier Type
    160     ,                        !- Dry-Bulb Temperature Range Modifier Day Schedule Name
    161     Wetbulb,                 !- Humidity Condition Type
    162     -16.6,                   !- Wetbulb or DewPoint at Maximum Dry-Bulb {C}
    163     ,                        !- Humidity Condition Day Schedule Name
    164     ,                        !- Humidity Ratio at Maximum Dry-Bulb {kgWater/kgDryAir}
    165     ,                        !- Enthalpy at Maximum Dry-Bulb {J/kg}
    166     ,                        !- Daily Wet-Bulb Temperature Range {deltaC}
    167     98934.,                  !- Barometric Pressure {Pa}
    168     4.9,                     !- Wind Speed {m/s}
    169     270,                     !- Wind Direction {deg}
    170     No,                      !- Rain Indicator
    171     No,                      !- Snow Indicator
    172     No,                      !- Daylight Saving Time Indicator
    173     ASHRAEClearSky,          !- Solar Model Indicator
    174     ,                        !- Beam Solar Day Schedule Name
    175     ,                        !- Diffuse Solar Day Schedule Name
    176     ,                        !- ASHRAE Clear Sky Optical Depth for Beam Irradiance (taub) {dimensionless}
    177     ,                        !- ASHRAE Clear Sky Optical Depth for Diffuse Irradiance (taud) {dimensionless}
    178     0.0;                     !- Sky Clearness
    179 
    180 ! CHICAGO_IL_USA Annual Cooling 1% Design Conditions, MaxDB=  31.5°C MCWB=  23.0°C
    181 
    182   SizingPeriod:DesignDay,
    183     CHICAGO_IL_USA Annual Cooling 1% Design Conditions DB/MCWB,  !- Name
    184     7,                       !- Month
    185     21,                      !- Day of Month
    186     SummerDesignDay,         !- Day Type
    187     31.6,                    !- Maximum Dry-Bulb Temperature {C}
    188     10.5,                    !- Daily Dry-Bulb Temperature Range {deltaC}
    189     ,                        !- Dry-Bulb Temperature Range Modifier Type
    190     ,                        !- Dry-Bulb Temperature Range Modifier Day Schedule Name
    191     Wetbulb,                 !- Humidity Condition Type
    192     23.0,                    !- Wetbulb or DewPoint at Maximum Dry-Bulb {C}
    193     ,                        !- Humidity Condition Day Schedule Name
    194     ,                        !- Humidity Ratio at Maximum Dry-Bulb {kgWater/kgDryAir}
    195     ,                        !- Enthalpy at Maximum Dry-Bulb {J/kg}
    196     ,                        !- Daily Wet-Bulb Temperature Range {deltaC}
    197     98934.,                  !- Barometric Pressure {Pa}
    198     5.2,                     !- Wind Speed {m/s}
    199     230,                     !- Wind Direction {deg}
    200     No,                      !- Rain Indicator
    201     No,                      !- Snow Indicator
    202     No,                      !- Daylight Saving Time Indicator
    203     ASHRAEClearSky,          !- Solar Model Indicator
    204     ,                        !- Beam Solar Day Schedule Name
    205     ,                        !- Diffuse Solar Day Schedule Name
    206     ,                        !- ASHRAE Clear Sky Optical Depth for Beam Irradiance (taub) {dimensionless}
    207     ,                        !- ASHRAE Clear Sky Optical Depth for Diffuse Irradiance (taud) {dimensionless}
    208     1.0;                     !- Sky Clearness
    209 
    210   Site:GroundTemperature:BuildingSurface,20.03,20.03,20.13,20.30,20.43,20.52,20.62,20.77,20.78,20.55,20.44,20.20;
    211 
    212   Material,
    213     WD10,                    !- Name
    214     MediumSmooth,            !- Roughness
    215     0.667,                   !- Thickness {m}
    216     0.115,                   !- Conductivity {W/m-K}
    217     513,                     !- Density {kg/m3}
    218     1381,                    !- Specific Heat {J/kg-K}
    219     0.9,                     !- Thermal Absorptance
    220     0.78,                    !- Solar Absorptance
    221     0.78;                    !- Visible Absorptance
    222 
    223   Material,
    224     RG01,                    !- Name
    225     Rough,                   !- Roughness
    226     1.2700000E-02,           !- Thickness {m}
    227     1.442000,                !- Conductivity {W/m-K}
    228     881.0000,                !- Density {kg/m3}
    229     1674.000,                !- Specific Heat {J/kg-K}
    230     0.9000000,               !- Thermal Absorptance
    231     0.6500000,               !- Solar Absorptance
    232     0.6500000;               !- Visible Absorptance
    233 
    234   Material,
    235     BR01,                    !- Name
    236     VeryRough,               !- Roughness
    237     9.4999997E-03,           !- Thickness {m}
    238     0.1620000,               !- Conductivity {W/m-K}
    239     1121.000,                !- Density {kg/m3}
    240     1464.000,                !- Specific Heat {J/kg-K}
    241     0.9000000,               !- Thermal Absorptance
    242     0.7000000,               !- Solar Absorptance
    243     0.7000000;               !- Visible Absorptance
    244 
    245   Material,
    246     IN46,                    !- Name
    247     VeryRough,               !- Roughness
    248     7.6200001E-02,           !- Thickness {m}
    249     2.3000000E-02,           !- Conductivity {W/m-K}
    250     24.00000,                !- Density {kg/m3}
    251     1590.000,                !- Specific Heat {J/kg-K}
    252     0.9000000,               !- Thermal Absorptance
    253     0.5000000,               !- Solar Absorptance
    254     0.5000000;               !- Visible Absorptance
    255 
    256   Material,
    257     WD01,                    !- Name
    258     MediumSmooth,            !- Roughness
    259     1.9099999E-02,           !- Thickness {m}
    260     0.1150000,               !- Conductivity {W/m-K}
    261     513.0000,                !- Density {kg/m3}
    262     1381.000,                !- Specific Heat {J/kg-K}
    263     0.9000000,               !- Thermal Absorptance
    264     0.7800000,               !- Solar Absorptance
    265     0.7800000;               !- Visible Absorptance
    266 
    267   Material,
    268     PW03,                    !- Name
    269     MediumSmooth,            !- Roughness
    270     1.2700000E-02,           !- Thickness {m}
    271     0.1150000,               !- Conductivity {W/m-K}
    272     545.0000,                !- Density {kg/m3}
    273     1213.000,                !- Specific Heat {J/kg-K}
    274     0.9000000,               !- Thermal Absorptance
    275     0.7800000,               !- Solar Absorptance
    276     0.7800000;               !- Visible Absorptance
    277 
    278   Material,
    279     IN02,                    !- Name
    280     Rough,                   !- Roughness
    281     9.0099998E-02,           !- Thickness {m}
    282     4.3000001E-02,           !- Conductivity {W/m-K}
    283     10.00000,                !- Density {kg/m3}
    284     837.0000,                !- Specific Heat {J/kg-K}
    285     0.9000000,               !- Thermal Absorptance
    286     0.7500000,               !- Solar Absorptance
    287     0.7500000;               !- Visible Absorptance
    288 
    289   Material,
    290     GP01,                    !- Name
    291     MediumSmooth,            !- Roughness
    292     1.2700000E-02,           !- Thickness {m}
    293     0.1600000,               !- Conductivity {W/m-K}
    294     801.0000,                !- Density {kg/m3}
    295     837.0000,                !- Specific Heat {J/kg-K}
    296     0.9000000,               !- Thermal Absorptance
    297     0.7500000,               !- Solar Absorptance
    298     0.7500000;               !- Visible Absorptance
    299 
    300   Material,
    301     GP02,                    !- Name
    302     MediumSmooth,            !- Roughness
    303     1.5900001E-02,           !- Thickness {m}
    304     0.1600000,               !- Conductivity {W/m-K}
    305     801.0000,                !- Density {kg/m3}
    306     837.0000,                !- Specific Heat {J/kg-K}
    307     0.9000000,               !- Thermal Absorptance
    308     0.7500000,               !- Solar Absorptance
    309     0.7500000;               !- Visible Absorptance
    310 
    311   Material,
    312     CC03,                    !- Name
    313     MediumRough,             !- Roughness
    314     0.1016000,               !- Thickness {m}
    315     1.310000,                !- Conductivity {W/m-K}
    316     2243.000,                !- Density {kg/m3}
    317     837.0000,                !- Specific Heat {J/kg-K}
    318     0.9000000,               !- Thermal Absorptance
    319     0.6500000,               !- Solar Absorptance
    320     0.6500000;               !- Visible Absorptance
    321 
    322   Material:NoMass,
    323     CP01,                    !- Name
    324     Rough,                   !- Roughness
    325     0.3670000,               !- Thermal Resistance {m2-K/W}
    326     0.9000000,               !- Thermal Absorptance
    327     0.7500000,               !- Solar Absorptance
    328     0.7500000;               !- Visible Absorptance
    329 
    330   Material:NoMass,
    331     MAT-SB-U,                !- Name
    332     Rough,                   !- Roughness
    333     0.117406666,             !- Thermal Resistance {m2-K/W}
    334     0.65,                    !- Thermal Absorptance
    335     0.65,                    !- Solar Absorptance
    336     0.65;                    !- Visible Absorptance
    337 
    338   Material:NoMass,
    339     MAT-CLNG-1,              !- Name
    340     Rough,                   !- Roughness
    341     0.652259290,             !- Thermal Resistance {m2-K/W}
    342     0.65,                    !- Thermal Absorptance
    343     0.65,                    !- Solar Absorptance
    344     0.65;                    !- Visible Absorptance
    345 
    346   Material:NoMass,
    347     MAT-FLOOR-1,             !- Name
    348     Rough,                   !- Roughness
    349     3.522199631,             !- Thermal Resistance {m2-K/W}
    350     0.65,                    !- Thermal Absorptance
    351     0.65,                    !- Solar Absorptance
    352     0.65;                    !- Visible Absorptance
    353 
    354   Material:AirGap,
    355     AL21,                    !- Name
    356     0.1570000;               !- Thermal Resistance {m2-K/W}
    357 
    358   Material:AirGap,
    359     AL23,                    !- Name
    360     0.1530000;               !- Thermal Resistance {m2-K/W}
    361 
    362   WindowMaterial:Glazing,
    363     CLEAR 3MM,               !- Name
    364     SpectralAverage,         !- Optical Data Type
    365     ,                        !- Window Glass Spectral Data Set Name
    366     0.003,                   !- Thickness {m}
    367     0.837,                   !- Solar Transmittance at Normal Incidence
    368     0.075,                   !- Front Side Solar Reflectance at Normal Incidence
    369     0.075,                   !- Back Side Solar Reflectance at Normal Incidence
    370     0.898,                   !- Visible Transmittance at Normal Incidence
    371     0.081,                   !- Front Side Visible Reflectance at Normal Incidence
    372     0.081,                   !- Back Side Visible Reflectance at Normal Incidence
    373     0.0,                     !- Infrared Transmittance at Normal Incidence
    374     0.84,                    !- Front Side Infrared Hemispherical Emissivity
    375     0.84,                    !- Back Side Infrared Hemispherical Emissivity
    376     0.9;                     !- Conductivity {W/m-K}
    377 
    378   WindowMaterial:Glazing,
    379     GREY 3MM,                !- Name
    380     SpectralAverage,         !- Optical Data Type
    381     ,                        !- Window Glass Spectral Data Set Name
    382     0.003,                   !- Thickness {m}
    383     0.626,                   !- Solar Transmittance at Normal Incidence
    384     0.061,                   !- Front Side Solar Reflectance at Normal Incidence
    385     0.061,                   !- Back Side Solar Reflectance at Normal Incidence
    386     0.611,                   !- Visible Transmittance at Normal Incidence
    387     0.061,                   !- Front Side Visible Reflectance at Normal Incidence
    388     0.061,                   !- Back Side Visible Reflectance at Normal Incidence
    389     0.0,                     !- Infrared Transmittance at Normal Incidence
    390     0.84,                    !- Front Side Infrared Hemispherical Emissivity
    391     0.84,                    !- Back Side Infrared Hemispherical Emissivity
    392     0.9;                     !- Conductivity {W/m-K}
    393 
    394   WindowMaterial:Glazing,
    395     CLEAR 6MM,               !- Name
    396     SpectralAverage,         !- Optical Data Type
    397     ,                        !- Window Glass Spectral Data Set Name
    398     0.006,                   !- Thickness {m}
    399     0.775,                   !- Solar Transmittance at Normal Incidence
    400     0.071,                   !- Front Side Solar Reflectance at Normal Incidence
    401     0.071,                   !- Back Side Solar Reflectance at Normal Incidence
    402     0.881,                   !- Visible Transmittance at Normal Incidence
    403     0.080,                   !- Front Side Visible Reflectance at Normal Incidence
    404     0.080,                   !- Back Side Visible Reflectance at Normal Incidence
    405     0.0,                     !- Infrared Transmittance at Normal Incidence
    406     0.84,                    !- Front Side Infrared Hemispherical Emissivity
    407     0.84,                    !- Back Side Infrared Hemispherical Emissivity
    408     0.9;                     !- Conductivity {W/m-K}
    409 
    410   WindowMaterial:Glazing,
    411     LoE CLEAR 6MM,           !- Name
    412     SpectralAverage,         !- Optical Data Type
    413     ,                        !- Window Glass Spectral Data Set Name
    414     0.006,                   !- Thickness {m}
    415     0.600,                   !- Solar Transmittance at Normal Incidence
    416     0.170,                   !- Front Side Solar Reflectance at Normal Incidence
    417     0.220,                   !- Back Side Solar Reflectance at Normal Incidence
    418     0.840,                   !- Visible Transmittance at Normal Incidence
    419     0.055,                   !- Front Side Visible Reflectance at Normal Incidence
    420     0.078,                   !- Back Side Visible Reflectance at Normal Incidence
    421     0.0,                     !- Infrared Transmittance at Normal Incidence
    422     0.84,                    !- Front Side Infrared Hemispherical Emissivity
    423     0.10,                    !- Back Side Infrared Hemispherical Emissivity
    424     0.9;                     !- Conductivity {W/m-K}
    425 
    426   WindowMaterial:Gas,
    427     AIR 6MM,                 !- Name
    428     Air,                     !- Gas Type
    429     0.0063;                  !- Thickness {m}
    430 
    431   WindowMaterial:Gas,
    432     AIR 13MM,                !- Name
    433     Air,                     !- Gas Type
    434     0.0127;                  !- Thickness {m}
    435 
    436   WindowMaterial:Gas,
    437     ARGON 13MM,              !- Name
    438     Argon,                   !- Gas Type
    439     0.0127;                  !- Thickness {m}
    440 
    441   Construction,
    442     ROOF-1,                  !- Name
    443     RG01,                    !- Outside Layer
    444     BR01,                    !- Layer 2
    445     IN46,                    !- Layer 3
    446     WD01;                    !- Layer 4
    447 
    448   Construction,
    449     WALL-1,                  !- Name
    450     WD01,                    !- Outside Layer
    451     PW03,                    !- Layer 2
    452     IN02,                    !- Layer 3
    453     GP01;                    !- Layer 4
    454 
    455   Construction,
    456     CLNG-1,                  !- Name
    457     MAT-CLNG-1;              !- Outside Layer
    458 
    459   Construction,
    460     SB-U,                    !- Name
    461     MAT-SB-U;                !- Outside Layer
    462 
    463   Construction,
    464     FLOOR-1,                 !- Name
    465     MAT-FLOOR-1;             !- Outside Layer
    466 
    467   Construction,
    468     FLOOR-SLAB-1,            !- Name
    469     CC03;                    !- Outside Layer
    470 
    471   Construction,
    472     INT-WALL-1,              !- Name
    473     GP02,                    !- Outside Layer
    474     AL21,                    !- Layer 2
    475     GP02;                    !- Layer 3
    476 
    477   Construction,
    478     Dbl Clr 3mm/13mm Air,    !- Name
    479     CLEAR 3MM,               !- Outside Layer
    480     AIR 13MM,                !- Layer 2
    481     CLEAR 3MM;               !- Layer 3
    482 
    483   Construction,
    484     Dbl Clr 3mm/13mm Arg,    !- Name
    485     CLEAR 3MM,               !- Outside Layer
    486     ARGON 13MM,              !- Layer 2
    487     CLEAR 3MM;               !- Layer 3
    488 
    489   Construction,
    490     Sgl Grey 3mm,            !- Name
    491     GREY 3MM;                !- Outside Layer
    492 
    493   Construction,
    494     Dbl Clr 6mm/6mm Air,     !- Name
    495     CLEAR 6MM,               !- Outside Layer
    496     AIR 6MM,                 !- Layer 2
    497     CLEAR 6MM;               !- Layer 3
    498 
    499   Construction,
    500     Dbl LoE (e2=.1) Clr 6mm/6mm Air,  !- Name
    501     LoE CLEAR 6MM,           !- Outside Layer
    502     AIR 6MM,                 !- Layer 2
    503     CLEAR 6MM;               !- Layer 3
    504 
    505   Zone,
    506     PLENUM-1,                !- Name
    507     0,                       !- Direction of Relative North {deg}
    508     0,                       !- X Origin {m}
    509     0,                       !- Y Origin {m}
    510     0,                       !- Z Origin {m}
    511     1,                       !- Type
    512     1,                       !- Multiplier
    513     0.609600067,             !- Ceiling Height {m}
    514     autocalculate;           !- Volume {m3}
    515 
    516   Zone,
    517     SPACE1-1,                !- Name
    518     0,                       !- Direction of Relative North {deg}
    519     0,                       !- X Origin {m}
    520     0,                       !- Y Origin {m}
    521     0,                       !- Z Origin {m}
    522     1,                       !- Type
    523     1,                       !- Multiplier
    524     2.438400269,             !- Ceiling Height {m}
    525     autocalculate;           !- Volume {m3}
    526 
    527   Zone,
    528     SPACE2-1,                !- Name
    529     0,                       !- Direction of Relative North {deg}
    530     0,                       !- X Origin {m}
    531     0,                       !- Y Origin {m}
    532     0,                       !- Z Origin {m}
    533     1,                       !- Type
    534     1,                       !- Multiplier
    535     2.438400269,             !- Ceiling Height {m}
    536     autocalculate;           !- Volume {m3}
    537 
    538   Zone,
    539     SPACE3-1,                !- Name
    540     0,                       !- Direction of Relative North {deg}
    541     0,                       !- X Origin {m}
    542     0,                       !- Y Origin {m}
    543     0,                       !- Z Origin {m}
    544     1,                       !- Type
    545     1,                       !- Multiplier
    546     2.438400269,             !- Ceiling Height {m}
    547     autocalculate;           !- Volume {m3}
    548 
    549   Zone,
    550     SPACE4-1,                !- Name
    551     0,                       !- Direction of Relative North {deg}
    552     0,                       !- X Origin {m}
    553     0,                       !- Y Origin {m}
    554     0,                       !- Z Origin {m}
    555     1,                       !- Type
    556     1,                       !- Multiplier
    557     2.438400269,             !- Ceiling Height {m}
    558     autocalculate;           !- Volume {m3}
    559 
    560   Zone,
    561     SPACE5-1,                !- Name
    562     0,                       !- Direction of Relative North {deg}
    563     0,                       !- X Origin {m}
    564     0,                       !- Y Origin {m}
    565     0,                       !- Z Origin {m}
    566     1,                       !- Type
    567     1,                       !- Multiplier
    568     2.438400269,             !- Ceiling Height {m}
    569     autocalculate;           !- Volume {m3}
    570 
    571   GlobalGeometryRules,
    572     UpperLeftCorner,         !- Starting Vertex Position
    573     CounterClockWise,        !- Vertex Entry Direction
    574     relative;                !- Coordinate System
    575 
    576   BuildingSurface:Detailed,
    577     WALL-1PF,                !- Name
    578     WALL,                    !- Surface Type
    579     WALL-1,                  !- Construction Name
    580     PLENUM-1,                !- Zone Name
    581     Outdoors,                !- Outside Boundary Condition
    582     ,                        !- Outside Boundary Condition Object
    583     SunExposed,              !- Sun Exposure
    584     WindExposed,             !- Wind Exposure
    585     0.50000,                 !- View Factor to Ground
    586     4,                       !- Number of Vertices
    587     0.0,0.0,3.0,  !- X,Y,Z ==> Vertex 1 {m}
    588     0.0,0.0,2.4,  !- X,Y,Z ==> Vertex 2 {m}
    589     30.5,0.0,2.4,  !- X,Y,Z ==> Vertex 3 {m}
    590     30.5,0.0,3.0;  !- X,Y,Z ==> Vertex 4 {m}
    591 
    592   BuildingSurface:Detailed,
    593     WALL-1PR,                !- Name
    594     WALL,                    !- Surface Type
    595     WALL-1,                  !- Construction Name
    596     PLENUM-1,                !- Zone Name
    597     Outdoors,                !- Outside Boundary Condition
    598     ,                        !- Outside Boundary Condition Object
    599     SunExposed,              !- Sun Exposure
    600     WindExposed,             !- Wind Exposure
    601     0.50000,                 !- View Factor to Ground
    602     4,                       !- Number of Vertices
    603     30.5,0.0,3.0,  !- X,Y,Z ==> Vertex 1 {m}
    604     30.5,0.0,2.4,  !- X,Y,Z ==> Vertex 2 {m}
    605     30.5,15.2,2.4,  !- X,Y,Z ==> Vertex 3 {m}
    606     30.5,15.2,3.0;  !- X,Y,Z ==> Vertex 4 {m}
    607 
    608   BuildingSurface:Detailed,
    609     WALL-1PB,                !- Name
    610     WALL,                    !- Surface Type
    611     WALL-1,                  !- Construction Name
    612     PLENUM-1,                !- Zone Name
    613     Outdoors,                !- Outside Boundary Condition
    614     ,                        !- Outside Boundary Condition Object
    615     SunExposed,              !- Sun Exposure
    616     WindExposed,             !- Wind Exposure
    617     0.50000,                 !- View Factor to Ground
    618     4,                       !- Number of Vertices
    619     30.5,15.2,3.0,  !- X,Y,Z ==> Vertex 1 {m}
    620     30.5,15.2,2.4,  !- X,Y,Z ==> Vertex 2 {m}
    621     0.0,15.2,2.4,  !- X,Y,Z ==> Vertex 3 {m}
    622     0.0,15.2,3.0;  !- X,Y,Z ==> Vertex 4 {m}
    623 
    624   BuildingSurface:Detailed,
    625     WALL-1PL,                !- Name
    626     WALL,                    !- Surface Type
    627     WALL-1,                  !- Construction Name
    628     PLENUM-1,                !- Zone Name
    629     Outdoors,                !- Outside Boundary Condition
    630     ,                        !- Outside Boundary Condition Object
    631     SunExposed,              !- Sun Exposure
    632     WindExposed,             !- Wind Exposure
    633     0.50000,                 !- View Factor to Ground
    634     4,                       !- Number of Vertices
    635     0.0,15.2,3.0,  !- X,Y,Z ==> Vertex 1 {m}
    636     0.0,15.2,2.4,  !- X,Y,Z ==> Vertex 2 {m}
    637     0.0,0.0,2.4,  !- X,Y,Z ==> Vertex 3 {m}
    638     0.0,0.0,3.0;  !- X,Y,Z ==> Vertex 4 {m}
    639 
    640   BuildingSurface:Detailed,
    641     TOP-1,                   !- Name
    642     ROOF,                    !- Surface Type
    643     ROOF-1,                  !- Construction Name
    644     PLENUM-1,                !- Zone Name
    645     Outdoors,                !- Outside Boundary Condition
    646     ,                        !- Outside Boundary Condition Object
    647     SunExposed,              !- Sun Exposure
    648     WindExposed,             !- Wind Exposure
    649     0.00000,                 !- View Factor to Ground
    650     4,                       !- Number of Vertices
    651     0.0,15.2,3.0,  !- X,Y,Z ==> Vertex 1 {m}
    652     0.0,0.0,3.0,  !- X,Y,Z ==> Vertex 2 {m}
    653     30.5,0.0,3.0,  !- X,Y,Z ==> Vertex 3 {m}
    654     30.5,15.2,3.0;  !- X,Y,Z ==> Vertex 4 {m}
    655 
    656   BuildingSurface:Detailed,
    657     C1-1P,                   !- Name
    658     FLOOR,                   !- Surface Type
    659     CLNG-1,                  !- Construction Name
    660     PLENUM-1,                !- Zone Name
    661     Surface,                 !- Outside Boundary Condition
    662     C1-1,                    !- Outside Boundary Condition Object
    663     NoSun,                   !- Sun Exposure
    664     NoWind,                  !- Wind Exposure
    665     0.0,                     !- View Factor to Ground
    666     4,                       !- Number of Vertices
    667     30.5,3.7,2.4,  !- X,Y,Z ==> Vertex 1 {m}
    668     30.5,0.0,2.4,  !- X,Y,Z ==> Vertex 2 {m}
    669     0.0,0.0,2.4,  !- X,Y,Z ==> Vertex 3 {m}
    670     0.0,3.7,2.4;  !- X,Y,Z ==> Vertex 4 {m}
    671 
    672   BuildingSurface:Detailed,
    673     C2-1P,                   !- Name
    674     FLOOR,                   !- Surface Type
    675     CLNG-1,                  !- Construction Name
    676     PLENUM-1,                !- Zone Name
    677     Surface,                 !- Outside Boundary Condition
    678     C2-1,                    !- Outside Boundary Condition Object
    679     NoSun,                   !- Sun Exposure
    680     NoWind,                  !- Wind Exposure
    681     0.0,                     !- View Factor to Ground
    682     4,                       !- Number of Vertices
    683     26.8,11.6,2.4,  !- X,Y,Z ==> Vertex 1 {m}
    684     30.5,11.6,2.4,  !- X,Y,Z ==> Vertex 2 {m}
    685     30.5,3.7,2.4,  !- X,Y,Z ==> Vertex 3 {m}
    686     26.8,3.7,2.4;  !- X,Y,Z ==> Vertex 4 {m}
    687 
    688   BuildingSurface:Detailed,
    689     C3-1P,                   !- Name
    690     FLOOR,                   !- Surface Type
    691     CLNG-1,                  !- Construction Name
    692     PLENUM-1,                !- Zone Name
    693     Surface,                 !- Outside Boundary Condition
    694     C3-1,                    !- Outside Boundary Condition Object
    695     NoSun,                   !- Sun Exposure
    696     NoWind,                  !- Wind Exposure
    697     0.0,                     !- View Factor to Ground
    698     4,                       !- Number of Vertices
    699     30.5,11.6,2.4,  !- X,Y,Z ==> Vertex 1 {m}
    700     0.0,11.6,2.4,  !- X,Y,Z ==> Vertex 2 {m}
    701     0.0,15.2,2.4,  !- X,Y,Z ==> Vertex 3 {m}
    702     30.5,15.2,2.4;  !- X,Y,Z ==> Vertex 4 {m}
    703 
    704   BuildingSurface:Detailed,
    705     C4-1P,                   !- Name
    706     FLOOR,                   !- Surface Type
    707     CLNG-1,                  !- Construction Name
    708     PLENUM-1,                !- Zone Name
    709     Surface,                 !- Outside Boundary Condition
    710     C4-1,                    !- Outside Boundary Condition Object
    711     NoSun,                   !- Sun Exposure
    712     NoWind,                  !- Wind Exposure
    713     0.0,                     !- View Factor to Ground
    714     4,                       !- Number of Vertices
    715     3.7,3.7,2.4,  !- X,Y,Z ==> Vertex 1 {m}
    716     0.0,3.7,2.4,  !- X,Y,Z ==> Vertex 2 {m}
    717     0.0,11.6,2.4,  !- X,Y,Z ==> Vertex 3 {m}
    718     3.7,11.6,2.4;  !- X,Y,Z ==> Vertex 4 {m}
    719 
    720   BuildingSurface:Detailed,
    721     C5-1P,                   !- Name
    722     FLOOR,                   !- Surface Type
    723     CLNG-1,                  !- Construction Name
    724     PLENUM-1,                !- Zone Name
    725     Surface,                 !- Outside Boundary Condition
    726     C5-1,                    !- Outside Boundary Condition Object
    727     NoSun,                   !- Sun Exposure
    728     NoWind,                  !- Wind Exposure
    729     0.0,                     !- View Factor to Ground
    730     4,                       !- Number of Vertices
    731     26.8,11.6,2.4,  !- X,Y,Z ==> Vertex 1 {m}
    732     26.8,3.7,2.4,  !- X,Y,Z ==> Vertex 2 {m}
    733     3.7,3.7,2.4,  !- X,Y,Z ==> Vertex 3 {m}
    734     3.7,11.6,2.4;  !- X,Y,Z ==> Vertex 4 {m}
    735 
    736   BuildingSurface:Detailed,
    737     FRONT-1,                 !- Name
    738     WALL,                    !- Surface Type
    739     WALL-1,                  !- Construction Name
    740     SPACE1-1,                !- Zone Name
    741     Outdoors,                !- Outside Boundary Condition
    742     ,                        !- Outside Boundary Condition Object
    743     SunExposed,              !- Sun Exposure
    744     WindExposed,             !- Wind Exposure
    745     0.50000,                 !- View Factor to Ground
    746     4,                       !- Number of Vertices
    747     0.0,0.0,2.4,  !- X,Y,Z ==> Vertex 1 {m}
    748     0.0,0.0,0.0,  !- X,Y,Z ==> Vertex 2 {m}
    749     30.5,0.0,0.0,  !- X,Y,Z ==> Vertex 3 {m}
    750     30.5,0.0,2.4;  !- X,Y,Z ==> Vertex 4 {m}
    751 
    752   BuildingSurface:Detailed,
    753     C1-1,                    !- Name
    754     CEILING,                 !- Surface Type
    755     CLNG-1,                  !- Construction Name
    756     SPACE1-1,                !- Zone Name
    757     Surface,                 !- Outside Boundary Condition
    758     C1-1P,                   !- Outside Boundary Condition Object
    759     NoSun,                   !- Sun Exposure
    760     NoWind,                  !- Wind Exposure
    761     0.0,                     !- View Factor to Ground
    762     4,                       !- Number of Vertices
    763     0.0,3.7,2.4,  !- X,Y,Z ==> Vertex 1 {m}
    764     0.0,0.0,2.4,  !- X,Y,Z ==> Vertex 2 {m}
    765     30.5,0.0,2.4,  !- X,Y,Z ==> Vertex 3 {m}
    766     30.5,3.7,2.4;  !- X,Y,Z ==> Vertex 4 {m}
    767 
    768   BuildingSurface:Detailed,
    769     F1-1,                    !- Name
    770     FLOOR,                   !- Surface Type
    771     FLOOR-SLAB-1,            !- Construction Name
    772     SPACE1-1,                !- Zone Name
    773     Ground,                  !- Outside Boundary Condition
    774     ,                        !- Outside Boundary Condition Object
    775     NoSun,                   !- Sun Exposure
    776     NoWind,                  !- Wind Exposure
    777     0.0,                     !- View Factor to Ground
    778     4,                       !- Number of Vertices
    779     30.5,3.7,0.0,  !- X,Y,Z ==> Vertex 1 {m}
    780     30.5,0.0,0.0,  !- X,Y,Z ==> Vertex 2 {m}
    781     0.0,0.0,0.0,  !- X,Y,Z ==> Vertex 3 {m}
    782     0.0,3.7,0.0;  !- X,Y,Z ==> Vertex 4 {m}
    783 
    784   BuildingSurface:Detailed,
    785     SB12,                    !- Name
    786     WALL,                    !- Surface Type
    787     INT-WALL-1,              !- Construction Name
    788     SPACE1-1,                !- Zone Name
    789     Surface,                 !- Outside Boundary Condition
    790     SB21,                    !- Outside Boundary Condition Object
    791     NoSun,                   !- Sun Exposure
    792     NoWind,                  !- Wind Exposure
    793     0.0,                     !- View Factor to Ground
    794     4,                       !- Number of Vertices
    795     30.5,3.7,2.4,  !- X,Y,Z ==> Vertex 1 {m}
    796     30.5,3.7,0.0,  !- X,Y,Z ==> Vertex 2 {m}
    797     26.8,3.7,0.0,  !- X,Y,Z ==> Vertex 3 {m}
    798     26.8,3.7,2.4;  !- X,Y,Z ==> Vertex 4 {m}
    799 
    800   BuildingSurface:Detailed,
    801     SB14,                    !- Name
    802     WALL,                    !- Surface Type
    803     INT-WALL-1,              !- Construction Name
    804     SPACE1-1,                !- Zone Name
    805     Surface,                 !- Outside Boundary Condition
    806     SB41,                    !- Outside Boundary Condition Object
    807     NoSun,                   !- Sun Exposure
    808     NoWind,                  !- Wind Exposure
    809     0.0,                     !- View Factor to Ground
    810     4,                       !- Number of Vertices
    811     3.7,3.7,2.4,  !- X,Y,Z ==> Vertex 1 {m}
    812     3.7,3.7,0.0,  !- X,Y,Z ==> Vertex 2 {m}
    813     0.0,3.7,0.0,  !- X,Y,Z ==> Vertex 3 {m}
    814     0.0,3.7,2.4;  !- X,Y,Z ==> Vertex 4 {m}
    815 
    816   BuildingSurface:Detailed,
    817     SB15,                    !- Name
    818     WALL,                    !- Surface Type
    819     INT-WALL-1,              !- Construction Name
    820     SPACE1-1,                !- Zone Name
    821     Surface,                 !- Outside Boundary Condition
    822     SB51,                    !- Outside Boundary Condition Object
    823     NoSun,                   !- Sun Exposure
    824     NoWind,                  !- Wind Exposure
    825     0.0,                     !- View Factor to Ground
    826     4,                       !- Number of Vertices
    827     26.8,3.7,2.4,  !- X,Y,Z ==> Vertex 1 {m}
    828     26.8,3.7,0.0,  !- X,Y,Z ==> Vertex 2 {m}
    829     3.7,3.7,0.0,  !- X,Y,Z ==> Vertex 3 {m}
    830     3.7,3.7,2.4;  !- X,Y,Z ==> Vertex 4 {m}
    831 
    832   BuildingSurface:Detailed,
    833     RIGHT-1,                 !- Name
    834     WALL,                    !- Surface Type
    835     WALL-1,                  !- Construction Name
    836     SPACE2-1,                !- Zone Name
    837     Outdoors,                !- Outside Boundary Condition
    838     ,                        !- Outside Boundary Condition Object
    839     SunExposed,              !- Sun Exposure
    840     WindExposed,             !- Wind Exposure
    841     0.50000,                 !- View Factor to Ground
    842     4,                       !- Number of Vertices
    843     30.5,0.0,2.4,  !- X,Y,Z ==> Vertex 1 {m}
    844     30.5,0.0,0.0,  !- X,Y,Z ==> Vertex 2 {m}
    845     30.5,15.2,0.0,  !- X,Y,Z ==> Vertex 3 {m}
    846     30.5,15.2,2.4;  !- X,Y,Z ==> Vertex 4 {m}
    847 
    848   BuildingSurface:Detailed,
    849     C2-1,                    !- Name
    850     CEILING,                 !- Surface Type
    851     CLNG-1,                  !- Construction Name
    852     SPACE2-1,                !- Zone Name
    853     Surface,                 !- Outside Boundary Condition
    854     C2-1P,                   !- Outside Boundary Condition Object
    855     NoSun,                   !- Sun Exposure
    856     NoWind,                  !- Wind Exposure
    857     0.0,                     !- View Factor to Ground
    858     4,                       !- Number of Vertices
    859     26.8,3.7,2.4,  !- X,Y,Z ==> Vertex 1 {m}
    860     30.5,3.7,2.4,  !- X,Y,Z ==> Vertex 2 {m}
    861     30.5,11.6,2.4,  !- X,Y,Z ==> Vertex 3 {m}
    862     26.8,11.6,2.4;  !- X,Y,Z ==> Vertex 4 {m}
    863 
    864   BuildingSurface:Detailed,
    865     F2-1,                    !- Name
    866     FLOOR,                   !- Surface Type
    867     FLOOR-SLAB-1,            !- Construction Name
    868     SPACE2-1,                !- Zone Name-
    869     Ground,                  !- Outside Boundary Condition
    870     ,                        !- Outside Boundary Condition Object
    871     NoSun,                   !- Sun Exposure
    872     NoWind,                  !- Wind Exposure
    873     0.0,                     !- View Factor to Ground
    874     4,                       !- Number of Vertices
    875     26.8,11.6,0.0,  !- X,Y,Z ==> Vertex 1 {m}
    876     30.5,11.6,0.0,  !- X,Y,Z ==> Vertex 2 {m}
    877     30.5,3.7,0.0,  !- X,Y,Z ==> Vertex 3 {m}
    878     26.8,3.7,0.0;  !- X,Y,Z ==> Vertex 4 {m}
    879 
    880   BuildingSurface:Detailed,
    881     SB21,                    !- Name
    882     WALL,                    !- Surface Type
    883     INT-WALL-1,              !- Construction Name
    884     SPACE2-1,                !- Zone Name
    885     Surface,                 !- Outside Boundary Condition
    886     SB12,                    !- Outside Boundary Condition Object
    887     NoSun,                   !- Sun Exposure
    888     NoWind,                  !- Wind Exposure
    889     0.0,                     !- View Factor to Ground
    890     4,                       !- Number of Vertices
    891     26.8,3.7,2.4,  !- X,Y,Z ==> Vertex 1 {m}
    892     26.8,3.7,0.0,  !- X,Y,Z ==> Vertex 2 {m}
    893     30.5,3.7,0.0,  !- X,Y,Z ==> Vertex 3 {m}
    894     30.5,3.7,2.4;  !- X,Y,Z ==> Vertex 4 {m}
    895 
    896   BuildingSurface:Detailed,
    897     SB23,                    !- Name
    898     WALL,                    !- Surface Type
    899     INT-WALL-1,              !- Construction Name
    900     SPACE2-1,                !- Zone Name
    901     Surface,                 !- Outside Boundary Condition
    902     SB32,                    !- Outside Boundary Condition Object
    903     NoSun,                   !- Sun Exposure
    904     NoWind,                  !- Wind Exposure
    905     0.0,                     !- View Factor to Ground
    906     4,                       !- Number of Vertices
    907     30.5,11.6,2.4,  !- X,Y,Z ==> Vertex 1 {m}
    908     30.5,11.6,0.0,  !- X,Y,Z ==> Vertex 2 {m}
    909     26.8,11.6,0.0,  !- X,Y,Z ==> Vertex 3 {m}
    910     26.8,11.6,2.4;  !- X,Y,Z ==> Vertex 4 {m}
    911 
    912   BuildingSurface:Detailed,
    913     SB25,                    !- Name
    914     WALL,                    !- Surface Type
    915     INT-WALL-1,              !- Construction Name
    916     SPACE2-1,                !- Zone Name
    917     Surface,                 !- Outside Boundary Condition
    918     SB52,                    !- Outside Boundary Condition Object
    919     NoSun,                   !- Sun Exposure
    920     NoWind,                  !- Wind Exposure
    921     0.0,                     !- View Factor to Ground
    922     4,                       !- Number of Vertices
    923     26.8,11.6,2.4,  !- X,Y,Z ==> Vertex 1 {m}
    924     26.8,11.6,0.0,  !- X,Y,Z ==> Vertex 2 {m}
    925     26.8,3.7,0.0,  !- X,Y,Z ==> Vertex 3 {m}
    926     26.8,3.7,2.4;  !- X,Y,Z ==> Vertex 4 {m}
    927 
    928   BuildingSurface:Detailed,
    929     BACK-1,                  !- Name
    930     WALL,                    !- Surface Type
    931     WALL-1,                  !- Construction Name
    932     SPACE3-1,                !- Zone Name
    933     Outdoors,                !- Outside Boundary Condition
    934     ,                        !- Outside Boundary Condition Object
    935     SunExposed,              !- Sun Exposure
    936     WindExposed,             !- Wind Exposure
    937     0.50000,                 !- View Factor to Ground
    938     4,                       !- Number of Vertices
    939     30.5,15.2,2.4,  !- X,Y,Z ==> Vertex 1 {m}
    940     30.5,15.2,0.0,  !- X,Y,Z ==> Vertex 2 {m}
    941     0.0,15.2,0.0,  !- X,Y,Z ==> Vertex 3 {m}
    942     0.0,15.2,2.4;  !- X,Y,Z ==> Vertex 4 {m}
    943 
    944   BuildingSurface:Detailed,
    945     C3-1,                    !- Name
    946     CEILING,                 !- Surface Type
    947     CLNG-1,                  !- Construction Name
    948     SPACE3-1,                !- Zone Name
    949     Surface,                 !- Outside Boundary Condition
    950     C3-1P,                   !- Outside Boundary Condition Object
    951     NoSun,                   !- Sun Exposure
    952     NoWind,                  !- Wind Exposure
    953     0.0,                     !- View Factor to Ground
    954     4,                       !- Number of Vertices
    955     30.5,15.2,2.4,  !- X,Y,Z ==> Vertex 1 {m}
    956     0.0,15.2,2.4,  !- X,Y,Z ==> Vertex 2 {m}
    957     0.0,11.6,2.4,  !- X,Y,Z ==> Vertex 3 {m}
    958     30.5,11.6,2.4;  !- X,Y,Z ==> Vertex 4 {m}
    959 
    960   BuildingSurface:Detailed,
    961     F3-1,                    !- Name
    962     FLOOR,                   !- Surface Type
    963     FLOOR-SLAB-1,            !- Construction Name
    964     SPACE3-1,                !- Zone Name
    965     Ground,                  !- Outside Boundary Condition
    966     ,                        !- Outside Boundary Condition Object
    967     NoSun,                   !- Sun Exposure
    968     NoWind,                  !- Wind Exposure
    969     0.0,                     !- View Factor to Ground
    970     4,                       !- Number of Vertices
    971     30.5,11.6,0.0,  !- X,Y,Z ==> Vertex 1 {m}
    972     0.0,11.6,0.0,  !- X,Y,Z ==> Vertex 2 {m}
    973     0.0,15.2,0.0,  !- X,Y,Z ==> Vertex 3 {m}
    974     30.5,15.2,0.0;  !- X,Y,Z ==> Vertex 4 {m}
    975 
    976   BuildingSurface:Detailed,
    977     SB32,                    !- Name
    978     WALL,                    !- Surface Type
    979     INT-WALL-1,              !- Construction Name
    980     SPACE3-1,                !- Zone Name
    981     Surface,                 !- Outside Boundary Condition
    982     SB23,                    !- Outside Boundary Condition Object
    983     NoSun,                   !- Sun Exposure
    984     NoWind,                  !- Wind Exposure
    985     0.0,                     !- View Factor to Ground
    986     4,                       !- Number of Vertices
    987     26.8,11.6,2.4,  !- X,Y,Z ==> Vertex 1 {m}
    988     26.8,11.6,0.0,  !- X,Y,Z ==> Vertex 2 {m}
    989     30.5,11.6,0.0,  !- X,Y,Z ==> Vertex 3 {m}
    990     30.5,11.6,2.4;  !- X,Y,Z ==> Vertex 4 {m}
    991 
    992   BuildingSurface:Detailed,
    993     SB34,                    !- Name
    994     WALL,                    !- Surface Type
    995     INT-WALL-1,              !- Construction Name
    996     SPACE3-1,                !- Zone Name
    997     Surface,                 !- Outside Boundary Condition
    998     SB43,                    !- Outside Boundary Condition Object
    999     NoSun,                   !- Sun Exposure
   1000     NoWind,                  !- Wind Exposure
   1001     0.0,                     !- View Factor to Ground
   1002     4,                       !- Number of Vertices
   1003     0.0,11.6,2.4,  !- X,Y,Z ==> Vertex 1 {m}
   1004     0.0,11.6,0.0,  !- X,Y,Z ==> Vertex 2 {m}
   1005     3.7,11.6,0.0,  !- X,Y,Z ==> Vertex 3 {m}
   1006     3.7,11.6,2.4;  !- X,Y,Z ==> Vertex 4 {m}
   1007 
   1008   BuildingSurface:Detailed,
   1009     SB35,                    !- Name
   1010     WALL,                    !- Surface Type
   1011     INT-WALL-1,              !- Construction Name
   1012     SPACE3-1,                !- Zone Name
   1013     Surface,                 !- Outside Boundary Condition
   1014     SB53,                    !- Outside Boundary Condition Object
   1015     NoSun,                   !- Sun Exposure
   1016     NoWind,                  !- Wind Exposure
   1017     0.0,                     !- View Factor to Ground
   1018     4,                       !- Number of Vertices
   1019     3.7,11.6,2.4,  !- X,Y,Z ==> Vertex 1 {m}
   1020     3.7,11.6,0.0,  !- X,Y,Z ==> Vertex 2 {m}
   1021     26.8,11.6,0.0,  !- X,Y,Z ==> Vertex 3 {m}
   1022     26.8,11.6,2.4;  !- X,Y,Z ==> Vertex 4 {m}
   1023 
   1024   BuildingSurface:Detailed,
   1025     LEFT-1,                  !- Name
   1026     WALL,                    !- Surface Type
   1027     WALL-1,                  !- Construction Name
   1028     SPACE4-1,                !- Zone Name
   1029     Outdoors,                !- Outside Boundary Condition
   1030     ,                        !- Outside Boundary Condition Object
   1031     SunExposed,              !- Sun Exposure
   1032     WindExposed,             !- Wind Exposure
   1033     0.50000,                 !- View Factor to Ground
   1034     4,                       !- Number of Vertices
   1035     0.0,15.2,2.4,  !- X,Y,Z ==> Vertex 1 {m}
   1036     0.0,15.2,0.0,  !- X,Y,Z ==> Vertex 2 {m}
   1037     0.0,0.0,0.0,  !- X,Y,Z ==> Vertex 3 {m}
   1038     0.0,0.0,2.4;  !- X,Y,Z ==> Vertex 4 {m}
   1039 
   1040   BuildingSurface:Detailed,
   1041     C4-1,                    !- Name
   1042     CEILING,                 !- Surface Type
   1043     CLNG-1,                  !- Construction Name
   1044     SPACE4-1,                !- Zone Name
   1045     Surface,                 !- Outside Boundary Condition
   1046     C4-1P,                   !- Outside Boundary Condition Object
   1047     NoSun,                   !- Sun Exposure
   1048     NoWind,                  !- Wind Exposure
   1049     0.0,                     !- View Factor to Ground
   1050     4,                       !- Number of Vertices
   1051     3.7,11.6,2.4,  !- X,Y,Z ==> Vertex 1 {m}
   1052     0.0,11.6,2.4,  !- X,Y,Z ==> Vertex 2 {m}
   1053     0.0,3.7,2.4,  !- X,Y,Z ==> Vertex 3 {m}
   1054     3.7,3.7,2.4;  !- X,Y,Z ==> Vertex 4 {m}
   1055 
   1056   BuildingSurface:Detailed,
   1057     F4-1,                    !- Name
   1058     FLOOR,                   !- Surface Type
   1059     FLOOR-SLAB-1,            !- Construction Name
   1060     SPACE4-1,                !- Zone Name
   1061     Ground,                  !- Outside Boundary Condition
   1062     ,                        !- Outside Boundary Condition Object
   1063     NoSun,                   !- Sun Exposure
   1064     NoWind,                  !- Wind Exposure
   1065     0.0,                     !- View Factor to Ground
   1066     4,                       !- Number of Vertices
   1067     3.7,3.7,0.0,  !- X,Y,Z ==> Vertex 1 {m}
   1068     0.0,3.7,0.0,  !- X,Y,Z ==> Vertex 2 {m}
   1069     0.0,11.6,0.0,  !- X,Y,Z ==> Vertex 3 {m}
   1070     3.7,11.6,0.0;  !- X,Y,Z ==> Vertex 4 {m}
   1071 
   1072   BuildingSurface:Detailed,
   1073     SB41,                    !- Name
   1074     WALL,                    !- Surface Type
   1075     INT-WALL-1,              !- Construction Name
   1076     SPACE4-1,                !- Zone Name
   1077     Surface,                 !- Outside Boundary Condition
   1078     SB14,                    !- Outside Boundary Condition Object
   1079     NoSun,                   !- Sun Exposure
   1080     NoWind,                  !- Wind Exposure
   1081     0.0,                     !- View Factor to Ground
   1082     4,                       !- Number of Vertices
   1083     0.0,3.7,2.4,  !- X,Y,Z ==> Vertex 1 {m}
   1084     0.0,3.7,0.0,  !- X,Y,Z ==> Vertex 2 {m}
   1085     3.7,3.7,0.0,  !- X,Y,Z ==> Vertex 3 {m}
   1086     3.7,3.7,2.4;  !- X,Y,Z ==> Vertex 4 {m}
   1087 
   1088   BuildingSurface:Detailed,
   1089     SB43,                    !- Name
   1090     WALL,                    !- Surface Type
   1091     INT-WALL-1,              !- Construction Name
   1092     SPACE4-1,                !- Zone Name
   1093     Surface,                 !- Outside Boundary Condition
   1094     SB34,                    !- Outside Boundary Condition Object
   1095     NoSun,                   !- Sun Exposure
   1096     NoWind,                  !- Wind Exposure
   1097     0.0,                     !- View Factor to Ground
   1098     4,                       !- Number of Vertices
   1099     3.7,11.6,2.4,  !- X,Y,Z ==> Vertex 1 {m}
   1100     3.7,11.6,0.0,  !- X,Y,Z ==> Vertex 2 {m}
   1101     0.0,11.6,0.0,  !- X,Y,Z ==> Vertex 3 {m}
   1102     0.0,11.6,2.4;  !- X,Y,Z ==> Vertex 4 {m}
   1103 
   1104   BuildingSurface:Detailed,
   1105     SB45,                    !- Name
   1106     WALL,                    !- Surface Type
   1107     INT-WALL-1,              !- Construction Name
   1108     SPACE4-1,                !- Zone Name
   1109     Surface,                 !- Outside Boundary Condition
   1110     SB54,                    !- Outside Boundary Condition Object
   1111     NoSun,                   !- Sun Exposure
   1112     NoWind,                  !- Wind Exposure
   1113     0.0,                     !- View Factor to Ground
   1114     4,                       !- Number of Vertices
   1115     3.7,3.7,2.4,  !- X,Y,Z ==> Vertex 1 {m}
   1116     3.7,3.7,0.0,  !- X,Y,Z ==> Vertex 2 {m}
   1117     3.7,11.6,0.0,  !- X,Y,Z ==> Vertex 3 {m}
   1118     3.7,11.6,2.4;  !- X,Y,Z ==> Vertex 4 {m}
   1119 
   1120   BuildingSurface:Detailed,
   1121     C5-1,                    !- Name
   1122     CEILING,                 !- Surface Type
   1123     CLNG-1,                  !- Construction Name
   1124     SPACE5-1,                !- Zone Name
   1125     Surface,                 !- Outside Boundary Condition
   1126     C5-1P,                   !- Outside Boundary Condition Object
   1127     NoSun,                   !- Sun Exposure
   1128     NoWind,                  !- Wind Exposure
   1129     0.0,                     !- View Factor to Ground
   1130     4,                       !- Number of Vertices
   1131     3.7,11.6,2.4,  !- X,Y,Z ==> Vertex 1 {m}
   1132     3.7,3.7,2.4,  !- X,Y,Z ==> Vertex 2 {m}
   1133     26.8,3.7,2.4,  !- X,Y,Z ==> Vertex 3 {m}
   1134     26.8,11.6,2.4;  !- X,Y,Z ==> Vertex 4 {m}
   1135 
   1136   BuildingSurface:Detailed,
   1137     F5-1,                    !- Name
   1138     FLOOR,                   !- Surface Type
   1139     FLOOR-SLAB-1,            !- Construction Name
   1140     SPACE5-1,                !- Zone Name
   1141     Ground,                  !- Outside Boundary Condition
   1142     ,                        !- Outside Boundary Condition Object
   1143     NoSun,                   !- Sun Exposure
   1144     NoWind,                  !- Wind Exposure
   1145     0.0,                     !- View Factor to Ground
   1146     4,                       !- Number of Vertices
   1147     26.8,11.6,0.0,  !- X,Y,Z ==> Vertex 1 {m}
   1148     26.8,3.7,0.0,  !- X,Y,Z ==> Vertex 2 {m}
   1149     3.7,3.7,0.0,  !- X,Y,Z ==> Vertex 3 {m}
   1150     3.7,11.6,0.0;  !- X,Y,Z ==> Vertex 4 {m}
   1151 
   1152   BuildingSurface:Detailed,
   1153     SB51,                    !- Name
   1154     WALL,                    !- Surface Type
   1155     INT-WALL-1,              !- Construction Name
   1156     SPACE5-1,                !- Zone Name
   1157     Surface,                 !- Outside Boundary Condition
   1158     SB15,                    !- Outside Boundary Condition Object
   1159     NoSun,                   !- Sun Exposure
   1160     NoWind,                  !- Wind Exposure
   1161     0.0,                     !- View Factor to Ground
   1162     4,                       !- Number of Vertices
   1163     3.7,3.7,2.4,  !- X,Y,Z ==> Vertex 1 {m}
   1164     3.7,3.7,0.0,  !- X,Y,Z ==> Vertex 2 {m}
   1165     26.8,3.7,0.0,  !- X,Y,Z ==> Vertex 3 {m}
   1166     26.8,3.7,2.4;  !- X,Y,Z ==> Vertex 4 {m}
   1167 
   1168   BuildingSurface:Detailed,
   1169     SB52,                    !- Name
   1170     WALL,                    !- Surface Type
   1171     INT-WALL-1,              !- Construction Name
   1172     SPACE5-1,                !- Zone Name
   1173     Surface,                 !- Outside Boundary Condition
   1174     SB25,                    !- Outside Boundary Condition Object
   1175     NoSun,                   !- Sun Exposure
   1176     NoWind,                  !- Wind Exposure
   1177     0.0,                     !- View Factor to Ground
   1178     4,                       !- Number of Vertices
   1179     26.8,3.7,2.4,  !- X,Y,Z ==> Vertex 1 {m}
   1180     26.8,3.7,0.0,  !- X,Y,Z ==> Vertex 2 {m}
   1181     26.8,11.6,0.0,  !- X,Y,Z ==> Vertex 3 {m}
   1182     26.8,11.6,2.4;  !- X,Y,Z ==> Vertex 4 {m}
   1183 
   1184   BuildingSurface:Detailed,
   1185     SB53,                    !- Name
   1186     WALL,                    !- Surface Type
   1187     INT-WALL-1,              !- Construction Name
   1188     SPACE5-1,                !- Zone Name
   1189     Surface,                 !- Outside Boundary Condition
   1190     SB35,                    !- Outside Boundary Condition Object
   1191     NoSun,                   !- Sun Exposure
   1192     NoWind,                  !- Wind Exposure
   1193     0.0,                     !- View Factor to Ground
   1194     4,                       !- Number of Vertices
   1195     26.8,11.6,2.4,  !- X,Y,Z ==> Vertex 1 {m}
   1196     26.8,11.6,0.0,  !- X,Y,Z ==> Vertex 2 {m}
   1197     3.7,11.6,0.0,  !- X,Y,Z ==> Vertex 3 {m}
   1198     3.7,11.6,2.4;  !- X,Y,Z ==> Vertex 4 {m}
   1199 
   1200   BuildingSurface:Detailed,
   1201     SB54,                    !- Name
   1202     WALL,                    !- Surface Type
   1203     INT-WALL-1,              !- Construction Name
   1204     SPACE5-1,                !- Zone Name
   1205     Surface,                 !- Outside Boundary Condition
   1206     SB45,                    !- Outside Boundary Condition Object
   1207     NoSun,                   !- Sun Exposure
   1208     NoWind,                  !- Wind Exposure
   1209     0.0,                     !- View Factor to Ground
   1210     4,                       !- Number of Vertices
   1211     3.7,11.6,2.4,  !- X,Y,Z ==> Vertex 1 {m}
   1212     3.7,11.6,0.0,  !- X,Y,Z ==> Vertex 2 {m}
   1213     3.7,3.7,0.0,  !- X,Y,Z ==> Vertex 3 {m}
   1214     3.7,3.7,2.4;  !- X,Y,Z ==> Vertex 4 {m}
   1215 
   1216   FenestrationSurface:Detailed,
   1217     WF-1,                    !- Name
   1218     WINDOW,                  !- Surface Type
   1219     Dbl Clr 3mm/13mm Air,    !- Construction Name
   1220     FRONT-1,                 !- Building Surface Name
   1221     ,                        !- Outside Boundary Condition Object
   1222     0.50000,                 !- View Factor to Ground
   1223     ,                        !- Shading Control Name
   1224     ,                        !- Frame and Divider Name
   1225     1,                       !- Multiplier
   1226     4,                       !- Number of Vertices
   1227     3.0,0.0,2.1,  !- X,Y,Z ==> Vertex 1 {m}
   1228     3.0,0.0,0.9,  !- X,Y,Z ==> Vertex 2 {m}
   1229     16.8,0.0,0.9,  !- X,Y,Z ==> Vertex 3 {m}
   1230     16.8,0.0,2.1;  !- X,Y,Z ==> Vertex 4 {m}
   1231 
   1232   FenestrationSurface:Detailed,
   1233     DF-1,                    !- Name
   1234     GLASSDOOR,               !- Surface Type
   1235     Sgl Grey 3mm,            !- Construction Name
   1236     FRONT-1,                 !- Building Surface Name
   1237     ,                        !- Outside Boundary Condition Object
   1238     0.50000,                 !- View Factor to Ground
   1239     ,                        !- Shading Control Name
   1240     ,                        !- Frame and Divider Name
   1241     1,                       !- Multiplier
   1242     4,                       !- Number of Vertices
   1243     21.3,0.0,2.1,  !- X,Y,Z ==> Vertex 1 {m}
   1244     21.3,0.0,0.0,  !- X,Y,Z ==> Vertex 2 {m}
   1245     23.8,0.0,0.0,  !- X,Y,Z ==> Vertex 3 {m}
   1246     23.8,0.0,2.1;  !- X,Y,Z ==> Vertex 4 {m}
   1247 
   1248   FenestrationSurface:Detailed,
   1249     WR-1,                    !- Name
   1250     WINDOW,                  !- Surface Type
   1251     Dbl Clr 3mm/13mm Air,    !- Construction Name
   1252     RIGHT-1,                 !- Building Surface Name
   1253     ,                        !- Outside Boundary Condition Object
   1254     0.50000,                 !- View Factor to Ground
   1255     ,                        !- Shading Control Name
   1256     ,                        !- Frame and Divider Name
   1257     1,                       !- Multiplier
   1258     4,                       !- Number of Vertices
   1259     30.5,3.85,2.1,  !- X,Y,Z ==> Vertex 1 {m}
   1260     30.5,3.85,0.9,  !- X,Y,Z ==> Vertex 2 {m}
   1261     30.5,11.4,0.9,  !- X,Y,Z ==> Vertex 3 {m}
   1262     30.5,11.4,2.1;  !- X,Y,Z ==> Vertex 4 {m}
   1263 
   1264   FenestrationSurface:Detailed,
   1265     WB-1,                    !- Name
   1266     WINDOW,                  !- Surface Type
   1267     Dbl Clr 3mm/13mm Air,    !- Construction Name
   1268     BACK-1,                  !- Building Surface Name
   1269     ,                        !- Outside Boundary Condition Object
   1270     0.50000,                 !- View Factor to Ground
   1271     ,                        !- Shading Control Name
   1272     ,                        !- Frame and Divider Name
   1273     1,                       !- Multiplier
   1274     4,                       !- Number of Vertices
   1275     26.5,15.2,2.1,  !- X,Y,Z ==> Vertex 1 {m}
   1276     26.5,15.2,0.9,  !- X,Y,Z ==> Vertex 2 {m}
   1277     13.0,15.2,0.9,  !- X,Y,Z ==> Vertex 3 {m}
   1278     13.0,15.2,2.1;  !- X,Y,Z ==> Vertex 4 {m}
   1279 
   1280   FenestrationSurface:Detailed,
   1281     DB-1,                    !- Name
   1282     GLASSDOOR,               !- Surface Type
   1283     Sgl Grey 3mm,            !- Construction Name
   1284     BACK-1,                  !- Building Surface Name
   1285     ,                        !- Outside Boundary Condition Object
   1286     0.50000,                 !- View Factor to Ground
   1287     ,                        !- Shading Control Name
   1288     ,                        !- Frame and Divider Name
   1289     1,                       !- Multiplier
   1290     4,                       !- Number of Vertices
   1291     9.1,15.2,2.1,  !- X,Y,Z ==> Vertex 1 {m}
   1292     9.1,15.2,0.0,  !- X,Y,Z ==> Vertex 2 {m}
   1293     7.0,15.2,0.0,  !- X,Y,Z ==> Vertex 3 {m}
   1294     7.0,15.2,2.1;  !- X,Y,Z ==> Vertex 4 {m}
   1295 
   1296   FenestrationSurface:Detailed,
   1297     WL-1,                    !- Name
   1298     WINDOW,                  !- Surface Type
   1299     Dbl Clr 3mm/13mm Air,    !- Construction Name
   1300     LEFT-1,                  !- Building Surface Name
   1301     ,                        !- Outside Boundary Condition Object
   1302     0.50000,                 !- View Factor to Ground
   1303     ,                        !- Shading Control Name
   1304     ,                        !- Frame and Divider Name
   1305     1,                       !- Multiplier
   1306     4,                       !- Number of Vertices
   1307     0.0,11.4,2.1,  !- X,Y,Z ==> Vertex 1 {m}
   1308     0.0,11.4,0.9,  !- X,Y,Z ==> Vertex 2 {m}
   1309     0.0,4.0,0.9,  !- X,Y,Z ==> Vertex 3 {m}
   1310     0.0,4.0,2.1;  !- X,Y,Z ==> Vertex 4 {m}
   1311 
   1312   Shading:Zone:Detailed,
   1313     Main South Overhang,     !- Name
   1314     FRONT-1,                 !- Base Surface Name
   1315     ShadeTransSch,           !- Transmittance Schedule Name
   1316     4,                       !- Number of Vertices
   1317     0.0,-1.3,2.2,  !- X,Y,Z ==> Vertex 1 {m}
   1318     0.0,0.0,2.2,  !- X,Y,Z ==> Vertex 2 {m}
   1319     19.8,0.0,2.2,  !- X,Y,Z ==> Vertex 3 {m}
   1320     19.8,-1.3,2.2;  !- X,Y,Z ==> Vertex 4 {m}
   1321 
   1322   Shading:Zone:Detailed,
   1323     South Door Overhang,     !- Name
   1324     FRONT-1,                 !- Base Surface Name
   1325     ShadeTransSch,           !- Transmittance Schedule Name
   1326     4,                       !- Number of Vertices
   1327     21.0,-2.0,2.6,  !- X,Y,Z ==> Vertex 1 {m}
   1328     21.0,0.0,2.6,  !- X,Y,Z ==> Vertex 2 {m}
   1329     24.1,0.0,2.6,  !- X,Y,Z ==> Vertex 3 {m}
   1330     24.1,-2.0,2.6;  !- X,Y,Z ==> Vertex 4 {m}
   1331 
   1332   ScheduleTypeLimits,
   1333     Any Number;              !- Name
   1334 
   1335   ScheduleTypeLimits,
   1336     Fraction,                !- Name
   1337     0.0,                     !- Lower Limit Value
   1338     1.0,                     !- Upper Limit Value
   1339     CONTINUOUS;              !- Numeric Type
   1340 
   1341   ScheduleTypeLimits,
   1342     Temperature,             !- Name
   1343     -60,                     !- Lower Limit Value
   1344     200,                     !- Upper Limit Value
   1345     CONTINUOUS;              !- Numeric Type
   1346 
   1347   ScheduleTypeLimits,
   1348     Control Type,            !- Name
   1349     0,                       !- Lower Limit Value
   1350     4,                       !- Upper Limit Value
   1351     DISCRETE;                !- Numeric Type
   1352 
   1353   ScheduleTypeLimits,
   1354     On/Off,                  !- Name
   1355     0,                       !- Lower Limit Value
   1356     1,                       !- Upper Limit Value
   1357     DISCRETE;                !- Numeric Type
   1358 
   1359   ScheduleTypeLimits,
   1360     FlowRate,                !- Name
   1361     0.0,                     !- Lower Limit Value
   1362     10,                      !- Upper Limit Value
   1363     CONTINUOUS;              !- Numeric Type
   1364 
   1365   Schedule:Compact,
   1366     OCCUPY-1,                !- Name
   1367     FRACTION,                !- Schedule Type Limits Name
   1368     Through: 12/31,          !- Field 1
   1369     For: Weekdays,           !- Field 2
   1370     Until: 8:00,0.00,        !- Field 3
   1371     Until: 11:00,1.00,       !- Field 5
   1372     Until: 12:00,0.80,       !- Field 7
   1373     Until: 13:00,0.40,       !- Field 9
   1374     Until: 14:00,0.80,       !- Field 11
   1375     Until: 18:00,1.00,       !- Field 13
   1376     Until: 19:00,0.50,       !- Field 15
   1377     Until: 21:00,0.10,       !- Field 17
   1378     Until: 24:00,0.00,       !- Field 19
   1379     For: Weekends Holiday,   !- Field 21
   1380     Until: 24:00,0.00,       !- Field 22
   1381     For: SummerDesignDay,    !- Field 24
   1382     Until: 8:00,0.00,        !- Field 25
   1383     Until: 11:00,1.00,       !- Field 27
   1384     Until: 12:00,0.80,       !- Field 29
   1385     Until: 13:00,0.40,       !- Field 31
   1386     Until: 14:00,0.80,       !- Field 33
   1387     Until: 18:00,1.00,       !- Field 35
   1388     Until: 19:00,0.50,       !- Field 37
   1389     Until: 21:00,0.10,       !- Field 39
   1390     Until: 24:00,0.00,       !- Field 41
   1391     For: WinterDesignDay,    !- Field 43
   1392     Until: 24:00,0.00,       !- Field 44
   1393     For: CustomDay1 CustomDay2, !- Field 46
   1394     Until: 8:00,0.00,        !- Field 47
   1395     Until: 11:00,1.00,       !- Field 49
   1396     Until: 12:00,0.80,       !- Field 51
   1397     Until: 13:00,0.40,       !- Field 53
   1398     Until: 14:00,0.80,       !- Field 55
   1399     Until: 18:00,1.00,       !- Field 57
   1400     Until: 19:00,0.50,       !- Field 59
   1401     Until: 21:00,0.10,       !- Field 61
   1402     Until: 24:00,0.00;       !- Field 63
   1403 
   1404   Schedule:Compact,
   1405     LIGHTS-1,                !- Name
   1406     FRACTION,                !- Schedule Type Limits Name
   1407     Through: 12/31,          !- Field 1
   1408     For: Weekdays,           !- Field 2
   1409     Until: 8:00,5.00E-002,   !- Field 3
   1410     Until: 9:00,0.90,        !- Field 5
   1411     Until: 10:00,0.95,       !- Field 7
   1412     Until: 11:00,1.00,       !- Field 9
   1413     Until: 12:00,0.95,       !- Field 11
   1414     Until: 13:00,0.80,       !- Field 13
   1415     Until: 14:00,0.90,       !- Field 15
   1416     Until: 18:00,1.00,       !- Field 17
   1417     Until: 19:00,0.60,       !- Field 19
   1418     Until: 21:00,0.20,       !- Field 21
   1419     Until: 24:00,5.00E-002,  !- Field 23
   1420     For: Weekends Holiday,   !- Field 25
   1421     Until: 24:00,5.00E-002,  !- Field 26
   1422     For: SummerDesignDay,    !- Field 28
   1423     Until: 8:00,5.00E-002,   !- Field 29
   1424     Until: 9:00,0.90,        !- Field 31
   1425     Until: 10:00,0.95,       !- Field 33
   1426     Until: 11:00,1.00,       !- Field 35
   1427     Until: 12:00,0.95,       !- Field 37
   1428     Until: 13:00,0.80,       !- Field 39
   1429     Until: 14:00,0.90,       !- Field 41
   1430     Until: 18:00,1.00,       !- Field 43
   1431     Until: 19:00,0.60,       !- Field 45
   1432     Until: 21:00,0.20,       !- Field 47
   1433     Until: 24:00,5.00E-002,  !- Field 49
   1434     For: WinterDesignDay,    !- Field 51
   1435     Until: 24:00,5.00E-002,  !- Field 52
   1436     For: CustomDay1 CustomDay2, !- Field 54
   1437     Until: 8:00,5.00E-002,   !- Field 55
   1438     Until: 9:00,0.90,        !- Field 57
   1439     Until: 10:00,0.95,       !- Field 59
   1440     Until: 11:00,1.00,       !- Field 61
   1441     Until: 12:00,0.95,       !- Field 63
   1442     Until: 13:00,0.80,       !- Field 65
   1443     Until: 14:00,0.90,       !- Field 67
   1444     Until: 18:00,1.00,       !- Field 69
   1445     Until: 19:00,0.60,       !- Field 71
   1446     Until: 21:00,0.20,       !- Field 73
   1447     Until: 24:00,5.00E-002;  !- Field 75
   1448 
   1449   Schedule:Compact,
   1450     EQUIP-1,                 !- Name
   1451     FRACTION,                !- Schedule Type Limits Name
   1452     Through: 12/31,          !- Field 1
   1453     For: Weekdays,           !- Field 2
   1454     Until: 8:00,2.00E-002,   !- Field 3
   1455     Until: 9:00,0.40,        !- Field 5
   1456     Until: 14:00,0.90,       !- Field 7
   1457     Until: 15:00,0.80,       !- Field 9
   1458     Until: 16:00,0.70,       !- Field 11
   1459     Until: 18:00,0.50,       !- Field 13
   1460     Until: 20:00,0.30,       !- Field 15
   1461     Until: 24:00,2.00E-002,  !- Field 17
   1462     For: Weekends Holiday,   !- Field 19
   1463     Until: 24:00,0.20,       !- Field 20
   1464     For: SummerDesignDay,    !- Field 22
   1465     Until: 8:00,2.00E-002,   !- Field 23
   1466     Until: 9:00,0.40,        !- Field 25
   1467     Until: 14:00,0.90,       !- Field 27
   1468     Until: 15:00,0.80,       !- Field 29
   1469     Until: 16:00,0.70,       !- Field 31
   1470     Until: 18:00,0.50,       !- Field 33
   1471     Until: 20:00,0.30,       !- Field 35
   1472     Until: 24:00,2.00E-002,  !- Field 37
   1473     For: WinterDesignDay,    !- Field 39
   1474     Until: 24:00,0.20,       !- Field 40
   1475     For: CustomDay1 CustomDay2, !- Field 42
   1476     Until: 8:00,2.00E-002,   !- Field 43
   1477     Until: 9:00,0.40,        !- Field 45
   1478     Until: 14:00,0.90,       !- Field 47
   1479     Until: 15:00,0.80,       !- Field 49
   1480     Until: 16:00,0.70,       !- Field 51
   1481     Until: 18:00,0.50,       !- Field 53
   1482     Until: 20:00,0.30,       !- Field 55
   1483     Until: 24:00,2.00E-002;  !- Field 57
   1484 
   1485   Schedule:Compact,
   1486     INFIL-SCH,               !- Name
   1487     FRACTION,                !- Schedule Type Limits Name
   1488     Through: 3/31,           !- Field 1
   1489     For: AllDays,            !- Field 2
   1490     Until: 24:00,1.00,       !- Field 3
   1491     Through: 10/31,          !- Field 5
   1492     For: AllDays,            !- Field 6
   1493     Until: 24:00,0.00,       !- Field 7
   1494     Through: 12/31,          !- Field 9
   1495     For: AllDays,            !- Field 10
   1496     Until: 24:00,1.00;       !- Field 11
   1497 
   1498   Schedule:Compact,
   1499     ACTSCHD,                 !- Name
   1500     ANY NUMBER,              !- Schedule Type Limits Name
   1501     Through: 12/31,          !- Field 1
   1502     For: AllDays,            !- Field 2
   1503     Until: 24:00,117.239997864; !- Field 3
   1504 
   1505                              !- Field 4
   1506 
   1507   Schedule:Compact,
   1508     SHADETRANSSCH,           !- Name
   1509     FRACTION,                !- Schedule Type Limits Name
   1510     Through: 12/31,          !- Field 1
   1511     For: AllDays,            !- Field 2
   1512     Until: 24:00,0.00;       !- Field 3
   1513 
   1514   Schedule:Compact,
   1515     HTG-SETP-SCH,            !- Name
   1516     TEMPERATURE,             !- Schedule Type Limits Name
   1517     Through: 12/31,          !- Field 1
   1518     For: Weekdays,           !- Field 2
   1519     Until: 7:00,12.80,       !- Field 3
   1520     Until: 18:00,22.00,      !- Field 5
   1521     Until: 24:00,12.80,      !- Field 7
   1522     For: Weekends Holiday,   !- Field 9
   1523     Until: 7:00,12.80,       !- Field 10
   1524     Until: 13:00,22.00,      !- Field 12
   1525     Until: 24:00,12.80,      !- Field 14
   1526     For: SummerDesignDay,    !- Field 16
   1527     Until: 24:00,12.80,      !- Field 17
   1528     For: WinterDesignDay,    !- Field 19
   1529     Until: 24:00,22.00,      !- Field 20
   1530     For: CustomDay1 CustomDay2, !- Field 22
   1531     Until: 7:00,12.80,       !- Field 23
   1532     Until: 18:00,22.00,      !- Field 25
   1533     Until: 24:00,12.80;      !- Field 27
   1534 
   1535   Schedule:Compact,
   1536     CLG-SETP-SCH,            !- Name
   1537     TEMPERATURE,             !- Schedule Type Limits Name
   1538     Through: 12/31,          !- Field 1
   1539     For: Weekdays,           !- Field 2
   1540     Until: 7:00,40.00,       !- Field 3
   1541     Until: 18:00,24.00,      !- Field 5
   1542     Until: 24:00,40.00,      !- Field 7
   1543     For: Weekends Holiday,   !- Field 9
   1544     Until: 7:00,40.00,       !- Field 10
   1545     Until: 13:00,24.00,      !- Field 12
   1546     Until: 24:00,40.00,      !- Field 14
[...]
   3075     SPACE4-1 DualSPSched,    !- Name
   3076     Htg-SetP-Sch,            !- Heating Setpoint Temperature Schedule Name
   3077     Clg-SetP-Sch;            !- Cooling Setpoint Temperature Schedule Name
   3078 
   3079   ThermostatSetpoint:DualSetpoint,
   3080     SPACE5-1 DualSPSched,    !- Name
   3081     Htg-SetP-Sch,            !- Heating Setpoint Temperature Schedule Name
   3082     Clg-SetP-Sch;            !- Cooling Setpoint Temperature Schedule Name
   3083 
   3084   AirLoopHVAC:SupplyPath,
   3085     VAV SYS 1 Supply Path,   !- Name
   3086     VAV SYS 1 Zone Equip Inlet,  !- Supply Air Path Inlet Node Name
   3087     AirLoopHVAC:ZoneSplitter,!- Component 1 Object Type
   3088     VAV SYS 1 Zone Splitter; !- Component 1 Name
   3089 
   3090   AirLoopHVAC:ReturnPath,
   3091     VAV SYS 1 Return Path,   !- Name
   3092     VAV SYS 1 Return Air Outlet,  !- Return Air Path Outlet Node Name
   3093     AirLoopHVAC:ReturnPlenum,!- Component 1 Object Type
   3094     Return-Plenum-1;         !- Component 1 Name
   3095 
   3096   AirLoopHVAC:ReturnPlenum,
   3097     Return-Plenum-1,         !- Name
   3098     PLENUM-1,                !- Zone Name
   3099     PLENUM-1 Zone Air Node,  !- Zone Node Name
   3100     VAV SYS 1 Return Air Outlet,  !- Outlet Node Name
   3101     ,                        !- Induced Air Outlet Node or NodeList Name
   3102     SPACE1-1 Return Outlet,  !- Inlet 1 Node Name
   3103     SPACE2-1 Return Outlet,  !- Inlet 2 Node Name
   3104     SPACE3-1 Return Outlet,  !- Inlet 3 Node Name
   3105     SPACE4-1 Return Outlet,  !- Inlet 4 Node Name
   3106     SPACE5-1 Return Outlet;  !- Inlet 5 Node Name
   3107 
   3108   AirLoopHVAC:ZoneSplitter,
   3109     VAV SYS 1 Zone Splitter, !- Name
   3110     VAV SYS 1 Zone Equip Inlet,  !- Inlet Node Name
   3111     SPACE1-1 Damper Inlet,   !- Outlet 1 Node Name
   3112     SPACE2-1 Damper Inlet,   !- Outlet 2 Node Name
   3113     SPACE3-1 Damper Inlet,   !- Outlet 3 Node Name
   3114     SPACE4-1 Damper Inlet,   !- Outlet 4 Node Name
   3115     SPACE5-1 Damper Inlet;   !- Outlet 5 Node Name
   3116 
   3117   Boiler:Steam,
   3118     Steam Boiler Plant Boiler,  !- Name
   3119     NaturalGas,              !- Fuel Type
   3120     160000,                  !- Maximum Operating Pressure {Kpa}
   3121     0.8,                     !- Theoretical Efficiency
   3122     115,                     !- Design Outlet Steam Temperature {C}
   3123     autosize,                !- Nominal Capacity {W}
   3124     0.00001,                 !- Minimum Part Load Ratio
   3125     1.0,                     !- Maximum Part Load Ratio
   3126     0.2,                     !- Optimum Part Load Ratio
   3127     0.8,                     !- Coefficient 1 of Fuel Use Function of Part Load Ratio Curve
   3128     0.1,                     !- Coefficient 2 of Fuel Use Function of Part Load Ratio Curve
   3129     0.1,                     !- Coefficient 3 of Fuel Use Function of Part Load Ratio Curve
   3130     Steam Boiler Plant Boiler Inlet Node,  !- Water Inlet Node Name
   3131     Steam Boiler Plant Boiler Outlet Node;  !- Steam Outlet Node Name
   3132 
   3133   SetpointManager:Scheduled,
   3134     Steam Boiler Plant Boiler Setpoint Manager,  !- Name
   3135     Temperature,             !- Control Variable
   3136     Steam-Loop-Temp-Schedule,!- Schedule Name
   3137     Steam Boiler Plant Boiler Outlet Node;  !- Setpoint Node or NodeList Name
   3138 
   3139   DistrictCooling,
   3140     Purchased CHW Plant Chiller,  !- Name
   3141     Purchased CHW Plant Chiller Inlet Node,  !- Chilled Water Inlet Node Name
   3142     Purchased CHW Plant Chiller Outlet Node,  !- Chilled Water Outlet Node Name
   3143     1000000000000000;        !- Nominal Capacity {W}
   3144 
   3145   Pump:VariableSpeed,
   3146     Purchased CHW Plant ChW Circ Pump,  !- Name
   3147     Purchased CHW Plant ChW Supply Inlet Node,  !- Inlet Node Name
   3148     Purchased CHW Plant ChW Pump Outlet Node,  !- Outlet Node Name
   3149     autosize,                !- Rated Flow Rate {m3/s}
   3150     179352,                  !- Rated Pump Head {Pa}
   3151     autosize,                !- Rated Power Consumption {W}
   3152     0.9,                     !- Motor Efficiency
   3153     0.0,                     !- Fraction of Motor Inefficiencies to Fluid Stream
   3154     0,                       !- Coefficient 1 of the Part Load Performance Curve
   3155     1,                       !- Coefficient 2 of the Part Load Performance Curve
   3156     0,                       !- Coefficient 3 of the Part Load Performance Curve
   3157     0,                       !- Coefficient 4 of the Part Load Performance Curve
   3158     0,                       !- Minimum Flow Rate {m3/s}
   3159     INTERMITTENT;            !- Pump Control Type
   3160 
   3161   Pump:VariableSpeed:Condensate,
   3162     Steam Boiler Plant Steam Circ Pump,  !- Name
   3163     Steam Boiler Plant Steam Supply Inlet Node,  !- Inlet Node Name
   3164     Steam Boiler Plant Steam Pump Outlet Node,  !- Outlet Node Name
   3165     autosize,                !- Rated Flow Rate {m3/s}
   3166     179352,                  !- Rated Pump Head {Pa}
   3167     autosize,                !- Rated Power Consumption {W}
   3168     0.9,                     !- Motor Efficiency
   3169     0.0,                     !- Fraction of Motor Inefficiencies to Fluid Stream
   3170     0,                       !- Coefficient 1 of the Part Load Performance Curve
   3171     1,                       !- Coefficient 2 of the Part Load Performance Curve
   3172     0,                       !- Coefficient 3 of the Part Load Performance Curve
   3173     0,                       !- Coefficient 4 of the Part Load Performance Curve
   3174     ;                        !- Pump Flow Rate Schedule Name
   3175 
   3176   Coil:Heating:Steam,
   3177     SPACE2-1 Reheat Coil,    !- Name
   3178     ReheatCoilAvailSched,    !- Availability Schedule Name
   3179     autosize,                !- Maximum Steam Flow Rate {m3/s}
   3180     5.0,                     !- Degree of SubCooling {C}
   3181     15.0,                    !- Degree of Loop SubCooling {C}
   3182     SPACE2-1 Reheat Coil Steam Inlet,  !- Water Inlet Node Name
   3183     SPACE2-1 Reheat Coil Steam Outlet,  !- Water Outlet Node Name
   3184     SPACE2-1 Damper Outlet,  !- Air Inlet Node Name
   3185     SPACE2-1 Supply Inlet,   !- Air Outlet Node Name
   3186     ZoneLoadControl;         !- Coil Control Type
   3187 
   3188   Coil:Heating:Steam,
   3189     SPACE4-1 Reheat Coil,    !- Name
   3190     ReheatCoilAvailSched,    !- Availability Schedule Name
   3191     autosize,                !- Maximum Steam Flow Rate {m3/s}
   3192     5.0,                     !- Degree of SubCooling {C}
   3193     15.0,                    !- Degree of Loop SubCooling {C}
   3194     SPACE4-1 Reheat Coil Steam Inlet,  !- Water Inlet Node Name
   3195     SPACE4-1 Reheat Coil Steam Outlet,  !- Water Outlet Node Name
   3196     SPACE4-1 Damper Outlet,  !- Air Inlet Node Name
   3197     SPACE4-1 Supply Inlet,   !- Air Outlet Node Name
   3198     ZoneLoadControl;         !- Coil Control Type
   3199 
   3200   Coil:Heating:Steam,
   3201     SPACE5-1 Reheat Coil,    !- Name
   3202     ReheatCoilAvailSched,    !- Availability Schedule Name
   3203     autosize,                !- Maximum Steam Flow Rate {m3/s}
   3204     5.0,                     !- Degree of SubCooling {C}
   3205     15.0,                    !- Degree of Loop SubCooling {C}
   3206     SPACE5-1 Reheat Coil Steam Inlet,  !- Water Inlet Node Name
   3207     SPACE5-1 Reheat Coil Steam Outlet,  !- Water Outlet Node Name
   3208     SPACE5-1 Damper Outlet,  !- Air Inlet Node Name
   3209     SPACE5-1 Supply Inlet,   !- Air Outlet Node Name
   3210     ZoneLoadControl;         !- Coil Control Type
   3211 
   3212   Coil:Heating:Steam,
   3213     VAV SYS 1 Heating Coil,  !- Name
   3214     HEATINGCOILAVAILSCHED,   !- Availability Schedule Name
   3215     autosize,                !- Maximum Steam Flow Rate {m3/s}
   3216     5.0,                     !- Degree of SubCooling {C}
   3217     15.0,                    !- Degree of Loop SubCooling {C}
   3218     VAV SYS 1 Heating Coil Steam Inlet,  !- Water Inlet Node Name
   3219     VAV SYS 1 Heating Coil Steam Outlet,  !- Water Outlet Node Name
   3220     VAV SYS 1 Cooling Coil Outlet,  !- Air Inlet Node Name
   3221     VAV SYS 1 Heating Coil Outlet,  !- Air Outlet Node Name
   3222     TemperatureSetPointControl,  !- Coil Control Type
   3223     VAV SYS 1 Heating Coil Outlet;  !- Temperature Setpoint Node Name
   3224 
   3225   Coil:Cooling:Water:DetailedGeometry,
   3226     VAV SYS 1 Cooling Coil,  !- Name
   3227     CoolingCoilAvailSched,   !- Availability Schedule Name
   3228     autosize,                !- Maximum Water Flow Rate {m3/s}
   3229     autosize,                !- Tube Outside Surface Area {m2}
   3230     autosize,                !- Total Tube Inside Area {m2}
   3231     autosize,                !- Fin Surface Area {m2}
   3232     autosize,                !- Minimum Airflow Area {m2}
   3233     autosize,                !- Coil Depth {m}
   3234     autosize,                !- Fin Diameter {m}
   3235     0.0015,                  !- Fin Thickness {m}
   3236     0.01445,                 !- Tube Inside Diameter {m}
   3237     0.0159,                  !- Tube Outside Diameter {m}
   3238     386.0,                   !- Tube Thermal Conductivity {W/m-K}
   3239     204.0,                   !- Fin Thermal Conductivity {W/m-K}
   3240     0.0018,                  !- Fin Spacing {m}
   3241     0.026,                   !- Tube Depth Spacing {m}
   3242     4,                       !- Number of Tube Rows
   3243     autosize,                !- Number of Tubes per Row
   3244     VAV SYS 1 Cooling Coil ChW Inlet,  !- Water Inlet Node Name
   3245     VAV SYS 1 Cooling Coil ChW Outlet,  !- Water Outlet Node Name
   3246     VAV SYS 1 Mixed Air Outlet,  !- Air Inlet Node Name
   3247     VAV SYS 1 Cooling Coil Outlet;  !- Air Outlet Node Name
   3248 
   3249   Fan:VariableVolume,
   3250     VAV SYS 1 Supply Fan,    !- Name
   3251     FanAvailSched,           !- Availability Schedule Name
   3252     0.7,                     !- Fan Efficiency
   3253     600.0,                   !- Pressure Rise {Pa}
   3254     autosize,                !- Maximum Flow Rate {m3/s}
   3255     Fraction,                !- Fan Power Minimum Flow Rate Input Method
   3256     0.25,                    !- Fan Power Minimum Flow Fraction
   3257     ,                        !- Fan Power Minimum Air Flow Rate {m3/s}
   3258     0.9,                     !- Motor Efficiency
   3259     1.0,                     !- Motor In Airstream Fraction
   3260     0.35071223,              !- Fan Power Coefficient 1
   3261     0.30850535,              !- Fan Power Coefficient 2
   3262     -0.54137364,             !- Fan Power Coefficient 3
   3263     0.87198823,              !- Fan Power Coefficient 4
   3264     0.000,                   !- Fan Power Coefficient 5
   3265     VAV SYS 1 Heating Coil Outlet,  !- Air Inlet Node Name
   3266     VAV SYS 1 Air Loop Outlet;  !- Air Outlet Node Name
   3267 
   3268   Output:Variable,*,Site Outdoor Air Drybulb Temperature,Hourly;
   3269 
   3270   Output:Variable,*,Site Direct Solar Radiation Rate per Area,Hourly;
   3271 
   3272   Output:Variable,*,Site Outdoor Air Relative Humidity,Hourly;
   3273 
   3274   Output:Variable,*,Site Wind Speed,Hourly;
   3275 
   3276   Output:Variable,*,Site Wind Direction,Hourly;
   3277 
   3278   Output:Variable,*,Zone People Occupant Count,Hourly;
   3279 
   3280   Output:Variable,*,Zone Lights Total Heating Energy,Hourly;
   3281 
   3282   Output:Variable,*,Zone Air Temperature,Hourly;
   3283 
   3284   Output:Variable,FRONT-1,Surface Outside Face Incident Solar Radiation Rate per Area,Hourly;
   3285 
   3286 !  Output:Variable,*,Zone Air System Sensible Cooling Rate,Hourly;
   3287 
   3288   Output:Variable,*,Zone Air System Sensible Heating Rate,Hourly;
   3289 
   3290   Output:Variable,*,Zone Air Heat Balance Air Energy Storage Rate,Hourly;
   3291 
   3292   Output:Variable,*,Zone Total Internal Total Heating Rate,Hourly;
   3293 
   3294 !  Output:Variable,*,Zone Predicted Sensible Load to Heating Setpoint Heat Transfer Rate,Hourly;
   3295 
   3296 !  Output:Variable,*,Zone Predicted Sensible Load to Cooling Setpoint Heat Transfer Rate,Hourly;
   3297 
   3298   Output:Variable,*,Baseboard Total Heating Rate,Hourly;
   3299 
   3300 !  Output:Variable,*,Baseboard Total Heating Rate,Hourly;
   3301 
   3302 !  Output:Variable,*,Baseboard Steam Mass Flow Rate,Hourly;
   3303 
   3304 !  Output:Variable,*,Baseboard Steam Inlet Temperature,Hourly;
   3305 
   3306 !  Output:Variable,*,Baseboard Steam Outlet Temperature,Hourly;
   3307 
   3308 !  Output:Variable,*,Heating Coil Heating Rate,Hourly;
   3309 
   3310 !  Output:Variable,*,Heating Coil Steam Mass Flow Rate,Hourly;
   3311 
   3312 !  Output:Variable,*,Cooling Coil Total Cooling Rate,Hourly;
   3313 
   3314 ! Reporting NODES Values
   3315 
   3316 !  Output:Variable,VAV SYS 1 Air Loop Outlet,System Node Temperature,hourly;
   3317 
   3318 !  Output:Variable,VAV SYS 1 Air Loop Outlet,System Node Setpoint Temperature,hourly;
   3319 
   3320 !  Output:Variable,VAV SYS 1 Air Loop Outlet,System Node Mass Flow Rate,hourly;
   3321 
   3322 !  Output:Variable,VAV SYS 1 Heating Coil Outlet,System Node Temperature,hourly;
   3323 
   3324 !  Output:Variable,VAV SYS 1 Heating Coil Outlet,System Node Setpoint Temperature,hourly;
   3325 
   3326 !  Output:Variable,VAV SYS 1 Cooling Coil Outlet,System Node Temperature,hourly;
   3327 
   3328 !  Output:Variable,VAV SYS 1 Cooling Coil Outlet,System Node Setpoint Temperature,hourly;
   3329 
   3330 !  Output:Variable,VAV SYS 1 Mixed Air Outlet,System Node Temperature,hourly;
   3331 
   3332 !  Output:Meter,Fans:Electricity,Hourly;
   3333 
   3334 !  Output:Meter,Electricity:HVAC,Hourly;
   3335 
   3336 !  Output:Meter,Electricity:Plant,Hourly;
   3337 
   3338 !  Output:Meter,Electricity:Facility,Hourly;
   3339 
   3340 !  Output:Meter,Heating:Gas,Hourly;
   3341 
   3342 !  Output:Meter,Gas:Plant,Hourly;
   3343 
   3344 !  Output:Meter,Gas:Facility,Hourly;
   3345 
   3346   Output:VariableDictionary,Regular;
   3347 
   3348   Output:Surfaces:Drawing,dxf;
   3349 
   3350   OutputControl:Table:Style,
   3351     HTML;                    !- Column Separator
   3352 
   3353   Output:Table:SummaryReports,
   3354     AllSummary;              !- Report 1 Name
   3355 
  Processing Input Data File (in.idf) -- Complete
  Maximum number of Alpha IDF Args=          78
  Maximum number of Numeric IDF Args=          16
  Number of IDF "Lines"=         304
  Number of Defaulted Fields=          65
  Number of Fields with Defaults=         644
  Number of Autosized Fields=          37
  Number of Autosizable Fields =          57
  Number of Autocalculated Fields=          19
  Number of Autocalculatable Fields =         119
 Getting object=VERSION
 Getting object=HEATBALANCEALGORITHM
 Getting object=TIMESTEP
 Getting object=SIMULATIONCONTROL
 Getting object=OUTPUT:SURFACES:DRAWING
 Getting object=OUTPUT:VARIABLEDICTIONARY
 Getting object=BRANCH
 Getting object=NODELIST
 Getting object=BRANCHLIST
 Getting object=DESIGNSPECIFICATION:OUTDOORAIR
 Getting object=SIZING:PARAMETERS
 Getting object=ZONE
 Getting object=SIZING:ZONE
 Getting object=SIZING:SYSTEM
 Getting object=SIZING:PLANT
 Getting object=OUTPUT:TABLE:SUMMARYREPORTS
 Getting object=SIZINGPERIOD:DESIGNDAY
 Getting object=RUNPERIOD
 Getting object=SITE:LOCATION
 Getting object=SITE:GROUNDTEMPERATURE:BUILDINGSURFACE
 Getting object=OUTPUT:VARIABLE
 Getting object=SCHEDULE:COMPACT
  Processing Schedule Input -- Start
 Getting object=SCHEDULETYPELIMITS
  Processing Schedule Input -- Complete
 Getting object=BUILDING
 Getting object=SURFACECONVECTIONALGORITHM:INSIDE
 Getting object=SURFACECONVECTIONALGORITHM:OUTSIDE
 Getting object=MATERIAL
 Getting object=MATERIAL:NOMASS
 Getting object=MATERIAL:AIRGAP
 Getting object=WINDOWMATERIAL:GLAZING
 Getting object=WINDOWMATERIAL:GAS
 Getting object=CONSTRUCTION
 Getting object=GLOBALGEOMETRYRULES
 Getting object=BUILDINGSURFACE:DETAILED
 Getting object=FENESTRATIONSURFACE:DETAILED
 Getting object=SHADING:ZONE:DETAILED
 Getting object=PEOPLE
 Getting object=LIGHTS
 Getting object=ELECTRICEQUIPMENT
 Getting object=ZONEINFILTRATION:DESIGNFLOWRATE
 Getting object=OUTDOORAIR:NODELIST
 Getting object=ZONECONTROL:THERMOSTAT
 Getting object=THERMOSTATSETPOINT:DUALSETPOINT
 Getting object=SETPOINTMANAGER:SCHEDULED
 Getting object=SETPOINTMANAGER:MIXEDAIR
 Getting object=PLANTLOOP
 Getting object=AVAILABILITYMANAGER:SCHEDULED
 Getting object=AVAILABILITYMANAGERASSIGNMENTLIST
 Getting object=CONNECTORLIST
 Getting object=CONNECTOR:SPLITTER
 Getting object=CONNECTOR:MIXER
 Getting object=ZONEHVAC:EQUIPMENTCONNECTIONS
 Getting object=ZONEHVAC:EQUIPMENTLIST
 Getting object=AIRLOOPHVAC:SUPPLYPATH
 Getting object=AIRLOOPHVAC:RETURNPATH
 Getting object=AIRLOOPHVAC:ZONESPLITTER
 Getting object=ZONEHVAC:AIRDISTRIBUTIONUNIT
 Getting object=AIRTERMINAL:SINGLEDUCT:VAV:REHEAT
 Getting object=COIL:HEATING:STEAM
 Getting object=AIRTERMINAL:SINGLEDUCT:VAV:NOREHEAT
 Getting object=ZONEHVAC:BASEBOARD:RADIANTCONVECTIVE:STEAM
 Getting object=AIRLOOPHVAC:RETURNPLENUM
 Getting object=AIRLOOPHVAC
 Getting object=AIRLOOPHVAC:CONTROLLERLIST
 Getting object=AIRLOOPHVAC:OUTDOORAIRSYSTEM
 Getting object=AIRLOOPHVAC:OUTDOORAIRSYSTEM:EQUIPMENTLIST
 Getting object=OUTDOORAIR:MIXER
 Getting object=COIL:COOLING:WATER:DETAILEDGEOMETRY
 Getting object=CONTROLLER:WATERCOIL
 Getting object=CONTROLLER:OUTDOORAIR
 Getting object=FAN:VARIABLEVOLUME
 Getting object=PIPE:ADIABATIC
 Getting object=PIPE:ADIABATIC:STEAM
 Getting object=DISTRICTCOOLING
 Getting object=BOILER:STEAM
 Getting object=PLANTEQUIPMENTOPERATIONSCHEMES
 Getting object=PLANTEQUIPMENTOPERATION:COOLINGLOAD
 Getting object=PLANTEQUIPMENTOPERATION:HEATINGLOAD
 Getting object=PLANTEQUIPMENTLIST
 Getting object=PUMP:VARIABLESPEED
 Getting object=PUMP:VARIABLESPEED:CONDENSATE
 Getting object=OUTPUTCONTROL:TABLE:STYLE
 MonthlyInputCount=           0
 sizeMonthlyInput=           0
 MonthlyFieldSetInputCount=           0
 sizeMonthlyFieldSetInput=           0
 MonthlyTablesCount=           0
 MonthlyColumnsCount=           0
 sizeReportName=         100
 numReportName=          13
 sizeSubTable=         100
 numSubTable=          62
 sizeColumnTag=         400
 numColumnTag=         381
 sizeTableEntry=        2400
 numTableEntry=        2353
 sizeCompSizeTableEntry=         100
 numCompSizeTableEntry=          45
 NumOfRVariable=        5407
 NumOfRVariable(Total)=        5407
 NumOfRVariable(Actual)=          86
 NumOfRVariable(Summed)=          49
 NumOfRVariable(Meter)=          44
 NumOfIVariable=         258
 NumOfIVariable(Total)=         258
 NumOfIVariable(Actual)=           0
 NumOfIVariable(Summed)=           0
 MaxRVariable=        1000
 MaxIVariable=          10
 NumEnergyMeters=          77
 NumVarMeterArrays=          44
 maxUniqueKeyCount=        1500
 maxNumberOfFigures=           3
 MAXHCArrayBounds=          10
 MaxVerticesPerSurface=           4
 NumReportList=         500
 InstMeterCacheSize=        1000
 ClippingAlgorithm=SutherlandHodgman
 MonthlyFieldSetInputCount=           0
 NumConsideredOutputVariables=          13
 MaxConsideredOutputVariables=          13
 numActuatorsUsed=           0
 numEMSActuatorsAvailable=           0
 maxEMSActuatorsAvailable=           0
 numInternalVariablesUsed=           0
 numEMSInternalVarsAvailable=           2
 maxEMSInternalVarsAvailable=        1000
 NumOfNodeConnections=         214
 MaxNumOfNodeConnections=        1000
