Program Version,EnergyPlus-Darwin-64 8.1.0.009, YMD=2015.09.03 12:04,IDD_Version 8.1.0.009
   ** Warning ** Version: in IDF="8.0" not the same as expected="8.1.0"
   ************* Beginning Zone Sizing Calculations
   ** Warning ** CheckUsedConstructions: There are 5 nominally unused constructions in input.
   **   ~~~   ** For explicit details on each unused construction, use Output:Diagnostics,DisplayExtraWarnings;
   ************* Beginning System Sizing Calculations
   ************* Testing Individual Branch Integrity
   ************* All Branches passed integrity testing
   ************* Testing Individual Supply Air Path Integrity
   ************* All Supply Air Paths passed integrity testing
   ************* Testing Individual Return Air Path Integrity
   ************* All Return Air Paths passed integrity testing
   ************* No node connection errors were found.
   ************* Beginning Simulation
   ** Warning ** ControlCompOutput: Maximum iterations exceeded for ZoneHVAC:Baseboard:RadiantConvective:Steam = SPACE1-1 BASEBOARD
   **   ~~~   ** ... Load met       = 247.48916 W.
   **   ~~~   ** ... Load requested = 247.99917 W.
   **   ~~~   ** ... Error          = 0.20565038 %.
   **   ~~~   ** ... Tolerance      = 0.10000000 %.
   **   ~~~   ** ... Error          = (Load met - Load requested) / MAXIMUM(Load requested, 100)
   **   ~~~   ** ... Actuated Node Mass Flow Rate =1.289512105E-004 kg/s
   **   ~~~   **  Environment=Chicago Ohare Intl Ap IL USA TMY3 WMO#=725300, at Simulation time=01/19 16:45 - 17:00
   ** Warning ** ControlCompOutput: Maximum iterations exceeded for ZoneHVAC:Baseboard:RadiantConvective:Steam = SPACE3-1 BASEBOARD
   **   ~~~   ** ... Load met       = 54.00349 W.
   **   ~~~   ** ... Load requested = 54.22912 W.
   **   ~~~   ** ... Error          = 0.22563481 %.
   **   ~~~   ** ... Tolerance      = 0.10000000 %.
   **   ~~~   ** ... Error          = (Load met - Load requested) / MAXIMUM(Load requested, 100)
   **   ~~~   ** ... Actuated Node Mass Flow Rate =3.507725164E-005 kg/s
   **   ~~~   **  Environment=Chicago Ohare Intl Ap IL USA TMY3 WMO#=725300, at Simulation time=01/20 17:10 - 17:15
   ** Warning ** ControlCompOutput: Maximum iterations exceeded for ZoneHVAC:Baseboard:RadiantConvective:Steam = SPACE3-1 BASEBOARD
   **   ~~~   ** ... Load met       = 475.66128 W.
   **   ~~~   ** ... Load requested = 476.37654 W.
   **   ~~~   ** ... Error          = 0.15014596 %.
   **   ~~~   ** ... Tolerance      = 0.10000000 %.
   **   ~~~   ** ... Error          = (Load met - Load requested) / MAXIMUM(Load requested, 100)
   **   ~~~   ** ... Actuated Node Mass Flow Rate =2.494389607E-004 kg/s
   **   ~~~   **  Environment=Chicago Ohare Intl Ap IL USA TMY3 WMO#=725300, at Simulation time=01/23 14:15 - 14:17
   ** Warning ** ControlCompOutput: Maximum iterations exceeded for ZoneHVAC:Baseboard:RadiantConvective:Steam = SPACE3-1 BASEBOARD
   **   ~~~   ** ... Load met       = 117.54792 W.
   **   ~~~   ** ... Load requested = 117.90092 W.
   **   ~~~   ** ... Error          = 0.29940313 %.
   **   ~~~   ** ... Tolerance      = 0.10000000 %.
   **   ~~~   ** ... Error          = (Load met - Load requested) / MAXIMUM(Load requested, 100)
   **   ~~~   ** ... Actuated Node Mass Flow Rate =6.235965097E-005 kg/s
   **   ~~~   **  Environment=Chicago Ohare Intl Ap IL USA TMY3 WMO#=725300, at Simulation time=01/23 15:05 - 15:08
   ** Warning ** ControlCompOutput: Maximum iterations exceeded for ZoneHVAC:Baseboard:RadiantConvective:Steam = SPACE1-1 BASEBOARD
   **   ~~~   ** ... Load met       = 268.11565 W.
   **   ~~~   ** ... Load requested = 268.76956 W.
   **   ~~~   ** ... Error          = 0.24330089 %.
   **   ~~~   ** ... Tolerance      = 0.10000000 %.
   **   ~~~   ** ... Error          = (Load met - Load requested) / MAXIMUM(Load requested, 100)
   **   ~~~   ** ... Actuated Node Mass Flow Rate =1.289512105E-004 kg/s
   **   ~~~   **  Environment=Chicago Ohare Intl Ap IL USA TMY3 WMO#=725300, at Simulation time=01/24 09:15 - 09:22
   ** Warning ** ControlCompOutput: Maximum iterations exceeded for ZoneHVAC:Baseboard:RadiantConvective:Steam = SPACE3-1 BASEBOARD
   **   ~~~   ** ... Load met       = 74.33632 W.
   **   ~~~   ** ... Load requested = 74.44369 W.
   **   ~~~   ** ... Error          = 0.10736950 %.
   **   ~~~   ** ... Tolerance      = 0.10000000 %.
   **   ~~~   ** ... Error          = (Load met - Load requested) / MAXIMUM(Load requested, 100)
   **   ~~~   ** ... Actuated Node Mass Flow Rate =3.117976602E-005 kg/s
   **   ~~~   **  Environment=Chicago Ohare Intl Ap IL USA TMY3 WMO#=725300, at Simulation time=01/24 09:23 - 09:30
   ** Warning ** ControlCompOutput: Maximum iterations exceeded for ZoneHVAC:Baseboard:RadiantConvective:Steam = SPACE1-1 BASEBOARD
   **   ~~~   ** ... Load met       = 500.17766 W.
   **   ~~~   ** ... Load requested = 501.31891 W.
   **   ~~~   ** ... Error          = 0.22764939 %.
   **   ~~~   ** ... Tolerance      = 0.10000000 %.
   **   ~~~   ** ... Error          = (Load met - Load requested) / MAXIMUM(Load requested, 100)
   **   ~~~   ** ... Actuated Node Mass Flow Rate =2.579025440E-004 kg/s
   **   ~~~   **  Environment=Chicago Ohare Intl Ap IL USA TMY3 WMO#=725300, at Simulation time=01/25 12:15 - 12:30
   ** Warning ** GetDensityGlycol: Temperature is out of range (too high) for fluid [WATER] density **
   **   ~~~   ** ..Called From:PlantPumps:CalcPumps:,Temperature=[100.35], supplied data range=[0.00,100.00]
   **   ~~~   **  Environment=Chicago Ohare Intl Ap IL USA TMY3 WMO#=725300, at Simulation time=01/27 06:15 - 06:30
   ** Warning ** ControlCompOutput: Maximum iterations exceeded for ZoneHVAC:Baseboard:RadiantConvective:Steam = SPACE3-1 BASEBOARD
   **   ~~~   ** ... Load met       = 121.06959 W.
   **   ~~~   ** ... Load requested = 121.46521 W.
   **   ~~~   ** ... Error          = 0.32570622 %.
   **   ~~~   ** ... Tolerance      = 0.10000000 %.
   **   ~~~   ** ... Error          = (Load met - Load requested) / MAXIMUM(Load requested, 100)
   **   ~~~   ** ... Actuated Node Mass Flow Rate =6.235965097E-005 kg/s
   **   ~~~   **  Environment=Chicago Ohare Intl Ap IL USA TMY3 WMO#=725300, at Simulation time=02/02 12:30 - 12:45
   ** Warning ** ControlCompOutput: Maximum iterations exceeded for ZoneHVAC:Baseboard:RadiantConvective:Steam = SPACE3-1 BASEBOARD
   **   ~~~   ** ... Load met       = 239.83957 W.
   **   ~~~   ** ... Load requested = 240.09437 W.
   **   ~~~   ** ... Error          = 0.10612396 %.
   **   ~~~   ** ... Tolerance      = 0.10000000 %.
   **   ~~~   ** ... Error          = (Load met - Load requested) / MAXIMUM(Load requested, 100)
   **   ~~~   ** ... Actuated Node Mass Flow Rate =1.247194209E-004 kg/s
   **   ~~~   **  Environment=Chicago Ohare Intl Ap IL USA TMY3 WMO#=725300, at Simulation time=02/08 16:15 - 16:30
   ** Warning ** ControlCompOutput: Maximum iterations exceeded for ZoneHVAC:Baseboard:RadiantConvective:Steam = SPACE3-1 BASEBOARD
   **   ~~~   ** ... Load met       = 236.96553 W.
   **   ~~~   ** ... Load requested = 237.61376 W.
   **   ~~~   ** ... Error          = 0.27280724 %.
   **   ~~~   ** ... Tolerance      = 0.10000000 %.
   **   ~~~   ** ... Error          = (Load met - Load requested) / MAXIMUM(Load requested, 100)
   **   ~~~   ** ... Actuated Node Mass Flow Rate =1.247194209E-004 kg/s
   **   ~~~   **  Environment=Chicago Ohare Intl Ap IL USA TMY3 WMO#=725300, at Simulation time=02/09 15:11 - 15:15
   ** Warning ** ControlCompOutput: Maximum iterations exceeded for ZoneHVAC:Baseboard:RadiantConvective:Steam = SPACE3-1 BASEBOARD
   **   ~~~   ** ... Load met       = 236.31306 W.
   **   ~~~   ** ... Load requested = 236.69838 W.
   **   ~~~   ** ... Error          = 0.16278929 %.
   **   ~~~   ** ... Tolerance      = 0.10000000 %.
   **   ~~~   ** ... Error          = (Load met - Load requested) / MAXIMUM(Load requested, 100)
   **   ~~~   ** ... Actuated Node Mass Flow Rate =1.247194209E-004 kg/s
   **   ~~~   **  Environment=Chicago Ohare Intl Ap IL USA TMY3 WMO#=725300, at Simulation time=02/09 15:41 - 15:45
   ** Warning ** ControlCompOutput: Maximum iterations exceeded for ZoneHVAC:Baseboard:RadiantConvective:Steam = SPACE1-1 BASEBOARD
   **   ~~~   ** ... Load met       = 246.93960 W.
   **   ~~~   ** ... Load requested = 247.39616 W.
   **   ~~~   ** ... Error          = 0.18454624 %.
   **   ~~~   ** ... Tolerance      = 0.10000000 %.
   **   ~~~   ** ... Error          = (Load met - Load requested) / MAXIMUM(Load requested, 100)
   **   ~~~   ** ... Actuated Node Mass Flow Rate =1.289512105E-004 kg/s
   **   ~~~   **  Environment=Chicago Ohare Intl Ap IL USA TMY3 WMO#=725300, at Simulation time=02/10 10:30 - 10:45
   ** Warning ** ControlCompOutput: Maximum iterations exceeded for ZoneHVAC:Baseboard:RadiantConvective:Steam = SPACE1-1 BASEBOARD
   **   ~~~   ** ... Load met       = 253.18714 W.
   **   ~~~   ** ... Load requested = 253.56906 W.
   **   ~~~   ** ... Error          = 0.15061946 %.
   **   ~~~   ** ... Tolerance      = 0.10000000 %.
   **   ~~~   ** ... Error          = (Load met - Load requested) / MAXIMUM(Load requested, 100)
   **   ~~~   ** ... Actuated Node Mass Flow Rate =1.289512105E-004 kg/s
   **   ~~~   **  Environment=Chicago Ohare Intl Ap IL USA TMY3 WMO#=725300, at Simulation time=02/10 10:40 - 10:42
   ** Warning ** ControlCompOutput: Maximum iterations exceeded for ZoneHVAC:Baseboard:RadiantConvective:Steam = SPACE1-1 BASEBOARD
   **   ~~~   ** ... Load met       = 70.47361 W.
   **   ~~~   ** ... Load requested = 70.68684 W.
   **   ~~~   ** ... Error          = 0.21323662 %.
   **   ~~~   ** ... Tolerance      = 0.10000000 %.
   **   ~~~   ** ... Error          = (Load met - Load requested) / MAXIMUM(Load requested, 100)
   **   ~~~   ** ... Actuated Node Mass Flow Rate =3.223771039E-005 kg/s
   **   ~~~   **  Environment=Chicago Ohare Intl Ap IL USA TMY3 WMO#=725300, at Simulation time=02/13 15:13 - 15:15
   ** Warning ** ControlCompOutput: Maximum iterations exceeded for ZoneHVAC:Baseboard:RadiantConvective:Steam = SPACE1-1 BASEBOARD
   **   ~~~   ** ... Load met       = 80.84801 W.
   **   ~~~   ** ... Load requested = 81.13312 W.
   **   ~~~   ** ... Error          = 0.28510846 %.
   **   ~~~   ** ... Tolerance      = 0.10000000 %.
   **   ~~~   ** ... Error          = (Load met - Load requested) / MAXIMUM(Load requested, 100)
   **   ~~~   ** ... Actuated Node Mass Flow Rate =3.223771039E-005 kg/s
   **   ~~~   **  Environment=Chicago Ohare Intl Ap IL USA TMY3 WMO#=725300, at Simulation time=02/27 09:30 - 09:38
   ** Warning ** ControlCompOutput: Maximum iterations exceeded for ZoneHVAC:Baseboard:RadiantConvective:Steam = SPACE1-1 BASEBOARD
   **   ~~~   ** ... Load met       = 79.37153 W.
   **   ~~~   ** ... Load requested = 79.56722 W.
   **   ~~~   ** ... Error          = 0.19569725 %.
   **   ~~~   ** ... Tolerance      = 0.10000000 %.
   **   ~~~   ** ... Error          = (Load met - Load requested) / MAXIMUM(Load requested, 100)
   **   ~~~   ** ... Actuated Node Mass Flow Rate =3.223771039E-005 kg/s
   **   ~~~   **  Environment=Chicago Ohare Intl Ap IL USA TMY3 WMO#=725300, at Simulation time=02/27 09:38 - 09:45
   ** Warning ** ControlCompOutput: Maximum iterations exceeded for ZoneHVAC:Baseboard:RadiantConvective:Steam = SPACE3-1 BASEBOARD
   **   ~~~   ** ... Load met       = 89.39057 W.
   **   ~~~   ** ... Load requested = 89.20865 W.
   **   ~~~   ** ... Error          = 0.18191962 %.
   **   ~~~   ** ... Tolerance      = 0.10000000 %.
   **   ~~~   ** ... Error          = (Load met - Load requested) / MAXIMUM(Load requested, 100)
   **   ~~~   ** ... Actuated Node Mass Flow Rate =2.182593136E-004 kg/s
   **   ~~~   **  Environment=Chicago Ohare Intl Ap IL USA TMY3 WMO#=725300, at Simulation time=03/06 11:52 - 11:53
   ** Warning ** ControlCompOutput: Maximum iterations exceeded for ZoneHVAC:Baseboard:RadiantConvective:Steam = SPACE3-1 BASEBOARD
   **   ~~~   ** ... Load met       = 122.92642 W.
   **   ~~~   ** ... Load requested = 123.31289 W.
   **   ~~~   ** ... Error          = 0.31340517 %.
   **   ~~~   ** ... Tolerance      = 0.10000000 %.
   **   ~~~   ** ... Error          = (Load met - Load requested) / MAXIMUM(Load requested, 100)
   **   ~~~   ** ... Actuated Node Mass Flow Rate =6.235965097E-005 kg/s
   **   ~~~   **  Environment=Chicago Ohare Intl Ap IL USA TMY3 WMO#=725300, at Simulation time=03/08 09:45 - 10:00
   ** Warning ** ControlCompOutput: Maximum iterations exceeded for ZoneHVAC:Baseboard:RadiantConvective:Steam = SPACE3-1 BASEBOARD
   **   ~~~   ** ... Load met       = 62.58947 W.
   **   ~~~   ** ... Load requested = 62.93456 W.
   **   ~~~   ** ... Error          = 0.34508774 %.
   **   ~~~   ** ... Tolerance      = 0.10000000 %.
   **   ~~~   ** ... Error          = (Load met - Load requested) / MAXIMUM(Load requested, 100)
   **   ~~~   ** ... Actuated Node Mass Flow Rate =3.117976602E-005 kg/s
   **   ~~~   **  Environment=Chicago Ohare Intl Ap IL USA TMY3 WMO#=725300, at Simulation time=03/08 09:45 - 09:47
   ** Warning ** ControlCompOutput: Maximum iterations exceeded for ZoneHVAC:Baseboard:RadiantConvective:Steam = SPACE1-1 BASEBOARD
   **   ~~~   ** ... Load met       = 67.61627 W.
   **   ~~~   ** ... Load requested = 67.72696 W.
   **   ~~~   ** ... Error          = 0.11069697 %.
   **   ~~~   ** ... Tolerance      = 0.10000000 %.
   **   ~~~   ** ... Error          = (Load met - Load requested) / MAXIMUM(Load requested, 100)
   **   ~~~   ** ... Actuated Node Mass Flow Rate =3.223771039E-005 kg/s
   **   ~~~   **  Environment=Chicago Ohare Intl Ap IL USA TMY3 WMO#=725300, at Simulation time=03/08 10:03 - 10:06
   ** Warning ** ControlCompOutput: Maximum iterations exceeded for ZoneHVAC:Baseboard:RadiantConvective:Steam = SPACE1-1 BASEBOARD
   **   ~~~   ** ... Load met       = 42.54188 W.
   **   ~~~   ** ... Load requested = 42.64991 W.
   **   ~~~   ** ... Error          = 0.10803110 %.
   **   ~~~   ** ... Tolerance      = 0.10000000 %.
   **   ~~~   ** ... Error          = (Load met - Load requested) / MAXIMUM(Load requested, 100)
   **   ~~~   ** ... Actuated Node Mass Flow Rate =1.611879371E-005 kg/s
   **   ~~~   **  Environment=Chicago Ohare Intl Ap IL USA TMY3 WMO#=725300, at Simulation time=03/08 10:12 - 10:15
   ** Warning ** ControlCompOutput: Maximum iterations exceeded for ZoneHVAC:Baseboard:RadiantConvective:Steam = SPACE3-1 BASEBOARD
   **   ~~~   ** ... Load met       = 75.47534 W.
   **   ~~~   ** ... Load requested = 75.72892 W.
   **   ~~~   ** ... Error          = 0.25357991 %.
   **   ~~~   ** ... Tolerance      = 0.10000000 %.
   **   ~~~   ** ... Error          = (Load met - Load requested) / MAXIMUM(Load requested, 100)
   **   ~~~   ** ... Actuated Node Mass Flow Rate =3.117976602E-005 kg/s
   **   ~~~   **  Environment=Chicago Ohare Intl Ap IL USA TMY3 WMO#=725300, at Simulation time=03/09 09:21 - 09:24
   ** Warning ** ControlCompOutput: Maximum iterations exceeded for ZoneHVAC:Baseboard:RadiantConvective:Steam = SPACE1-1 BASEBOARD
   **   ~~~   ** ... Load met       = 77.75803 W.
   **   ~~~   ** ... Load requested = 77.95336 W.
   **   ~~~   ** ... Error          = 0.19533227 %.
   **   ~~~   ** ... Tolerance      = 0.10000000 %.
   **   ~~~   ** ... Error          = (Load met - Load requested) / MAXIMUM(Load requested, 100)
   **   ~~~   ** ... Actuated Node Mass Flow Rate =3.223771039E-005 kg/s
   **   ~~~   **  Environment=Chicago Ohare Intl Ap IL USA TMY3 WMO#=725300, at Simulation time=03/09 09:51 - 09:54
   ** Warning ** ControlCompOutput: Maximum iterations exceeded for ZoneHVAC:Baseboard:RadiantConvective:Steam = SPACE1-1 BASEBOARD
   **   ~~~   ** ... Load met       = 79.95983 W.
   **   ~~~   ** ... Load requested = 80.53184 W.
   **   ~~~   ** ... Error          = 0.57201019 %.
   **   ~~~   ** ... Tolerance      = 0.10000000 %.
   **   ~~~   ** ... Error          = (Load met - Load requested) / MAXIMUM(Load requested, 100)
   **   ~~~   ** ... Actuated Node Mass Flow Rate =3.223771039E-005 kg/s
   **   ~~~   **  Environment=Chicago Ohare Intl Ap IL USA TMY3 WMO#=725300, at Simulation time=03/09 09:57 - 10:00
   ** Warning ** ControlCompOutput: Maximum iterations exceeded for ZoneHVAC:Baseboard:RadiantConvective:Steam = SPACE1-1 BASEBOARD
   **   ~~~   ** ... Load met       = 62.73860 W.
   **   ~~~   ** ... Load requested = 63.60198 W.
   **   ~~~   ** ... Error          = 0.86337953 %.
   **   ~~~   ** ... Tolerance      = 0.10000000 %.
   **   ~~~   ** ... Error          = (Load met - Load requested) / MAXIMUM(Load requested, 100)
   **   ~~~   ** ... Actuated Node Mass Flow Rate =3.223771039E-005 kg/s
   **   ~~~   **  Environment=Chicago Ohare Intl Ap IL USA TMY3 WMO#=725300, at Simulation time=03/13 12:30 - 12:35
   ** Warning ** ControlCompOutput: Maximum iterations exceeded for ZoneHVAC:Baseboard:RadiantConvective:Steam = SPACE1-1 BASEBOARD
   **   ~~~   ** ... Load met       = 85.29763 W.
   **   ~~~   ** ... Load requested = 85.57138 W.
   **   ~~~   ** ... Error          = 0.27375200 %.
   **   ~~~   ** ... Tolerance      = 0.10000000 %.
   **   ~~~   ** ... Error          = (Load met - Load requested) / MAXIMUM(Load requested, 100)
   **   ~~~   ** ... Actuated Node Mass Flow Rate =3.223771039E-005 kg/s
   **   ~~~   **  Environment=Chicago Ohare Intl Ap IL USA TMY3 WMO#=725300, at Simulation time=03/13 12:45 - 12:50
   ** Warning ** ControlCompOutput: Maximum iterations exceeded for ZoneHVAC:Baseboard:RadiantConvective:Steam = SPACE1-1 BASEBOARD
   **   ~~~   ** ... Load met       = 127.54784 W.
   **   ~~~   ** ... Load requested = 127.79420 W.
   **   ~~~   ** ... Error          = 0.19278016 %.
   **   ~~~   ** ... Tolerance      = 0.10000000 %.
   **   ~~~   ** ... Error          = (Load met - Load requested) / MAXIMUM(Load requested, 100)
   **   ~~~   ** ... Actuated Node Mass Flow Rate =6.447554376E-005 kg/s
   **   ~~~   **  Environment=Chicago Ohare Intl Ap IL USA TMY3 WMO#=725300, at Simulation time=03/20 08:45 - 09:00
   ** Warning ** ControlCompOutput: Maximum iterations exceeded for ZoneHVAC:Baseboard:RadiantConvective:Steam = SPACE3-1 BASEBOARD
   **   ~~~   ** ... Load met       = 120.06513 W.
   **   ~~~   ** ... Load requested = 120.45222 W.
   **   ~~~   ** ... Error          = 0.32136394 %.
   **   ~~~   ** ... Tolerance      = 0.10000000 %.
   **   ~~~   ** ... Error          = (Load met - Load requested) / MAXIMUM(Load requested, 100)
   **   ~~~   ** ... Actuated Node Mass Flow Rate =6.235965097E-005 kg/s
   **   ~~~   **  Environment=Chicago Ohare Intl Ap IL USA TMY3 WMO#=725300, at Simulation time=03/21 10:00 - 10:15
   ** Warning ** ControlCompOutput: Maximum iterations exceeded for ZoneHVAC:Baseboard:RadiantConvective:Steam = SPACE1-1 BASEBOARD
   **   ~~~   ** ... Load met       = 36.69097 W.
   **   ~~~   ** ... Load requested = 36.80459 W.
   **   ~~~   ** ... Error          = 0.11362734 %.
   **   ~~~   ** ... Tolerance      = 0.10000000 %.
   **   ~~~   ** ... Error          = (Load met - Load requested) / MAXIMUM(Load requested, 100)
   **   ~~~   ** ... Actuated Node Mass Flow Rate =1.611879371E-005 kg/s
   **   ~~~   **  Environment=Chicago Ohare Intl Ap IL USA TMY3 WMO#=725300, at Simulation time=03/21 11:15 - 11:19
   ** Warning ** ControlCompOutput: Maximum iterations exceeded for ZoneHVAC:Baseboard:RadiantConvective:Steam = SPACE3-1 BASEBOARD
   **   ~~~   ** ... Load met       = 244.84891 W.
   **   ~~~   ** ... Load requested = 245.20109 W.
   **   ~~~   ** ... Error          = 0.14363034 %.
   **   ~~~   ** ... Tolerance      = 0.10000000 %.
   **   ~~~   ** ... Error          = (Load met - Load requested) / MAXIMUM(Load requested, 100)
   **   ~~~   ** ... Actuated Node Mass Flow Rate =1.247194209E-004 kg/s
   **   ~~~   **  Environment=Chicago Ohare Intl Ap IL USA TMY3 WMO#=725300, at Simulation time=03/22 09:15 - 09:30
   ** Warning ** ControlCompOutput: Maximum iterations exceeded for ZoneHVAC:Baseboard:RadiantConvective:Steam = SPACE3-1 BASEBOARD
   **   ~~~   ** ... Load met       = 30.38203 W.
   **   ~~~   ** ... Load requested = 30.59719 W.
   **   ~~~   ** ... Error          = 0.21516394 %.
   **   ~~~   ** ... Tolerance      = 0.10000000 %.
   **   ~~~   ** ... Error          = (Load met - Load requested) / MAXIMUM(Load requested, 100)
   **   ~~~   ** ... Actuated Node Mass Flow Rate =1.558982354E-005 kg/s
   **   ~~~   **  Environment=Chicago Ohare Intl Ap IL USA TMY3 WMO#=725300, at Simulation time=03/23 13:34 - 13:38
   ** Warning ** ControlCompOutput: Maximum iterations exceeded for ZoneHVAC:Baseboard:RadiantConvective:Steam = SPACE1-1 BASEBOARD
   **   ~~~   ** ... Load met       = 120.71408 W.
   **   ~~~   ** ... Load requested = 121.22153 W.
   **   ~~~   ** ... Error          = 0.41861324 %.
   **   ~~~   ** ... Tolerance      = 0.10000000 %.
   **   ~~~   ** ... Error          = (Load met - Load requested) / MAXIMUM(Load requested, 100)
   **   ~~~   ** ... Actuated Node Mass Flow Rate =6.447554376E-005 kg/s
   **   ~~~   **  Environment=Chicago Ohare Intl Ap IL USA TMY3 WMO#=725300, at Simulation time=03/28 15:30 - 15:45
   ** Warning ** ControlCompOutput: Maximum iterations exceeded for ZoneHVAC:Baseboard:RadiantConvective:Steam = SPACE3-1 BASEBOARD
   **   ~~~   ** ... Load met       = 224.98945 W.
   **   ~~~   ** ... Load requested = 225.53777 W.
   **   ~~~   ** ... Error          = 0.24311582 %.
   **   ~~~   ** ... Tolerance      = 0.10000000 %.
   **   ~~~   ** ... Error          = (Load met - Load requested) / MAXIMUM(Load requested, 100)
   **   ~~~   ** ... Actuated Node Mass Flow Rate =1.247194209E-004 kg/s
   **   ~~~   **  Environment=Chicago Ohare Intl Ap IL USA TMY3 WMO#=725300, at Simulation time=03/28 16:04 - 16:08
   ** Warning ** ControlCompOutput: Maximum iterations exceeded for ZoneHVAC:Baseboard:RadiantConvective:Steam = SPACE3-1 BASEBOARD
   **   ~~~   ** ... Load met       = 244.58470 W.
   **   ~~~   ** ... Load requested = 245.36429 W.
   **   ~~~   ** ... Error          = 0.31772914 %.
   **   ~~~   ** ... Tolerance      = 0.10000000 %.
   **   ~~~   ** ... Error          = (Load met - Load requested) / MAXIMUM(Load requested, 100)
   **   ~~~   ** ... Actuated Node Mass Flow Rate =1.247194209E-004 kg/s
   **   ~~~   **  Environment=Chicago Ohare Intl Ap IL USA TMY3 WMO#=725300, at Simulation time=03/29 08:30 - 08:45
   ** Warning ** ControlCompOutput: Maximum iterations exceeded for ZoneHVAC:Baseboard:RadiantConvective:Steam = SPACE3-1 BASEBOARD
   **   ~~~   ** ... Load met       = 471.86628 W.
   **   ~~~   ** ... Load requested = 472.45598 W.
   **   ~~~   ** ... Error          = 0.12481489 %.
   **   ~~~   ** ... Tolerance      = 0.10000000 %.
   **   ~~~   ** ... Error          = (Load met - Load requested) / MAXIMUM(Load requested, 100)
   **   ~~~   ** ... Actuated Node Mass Flow Rate =2.494389607E-004 kg/s
   **   ~~~   **  Environment=Chicago Ohare Intl Ap IL USA TMY3 WMO#=725300, at Simulation time=04/04 11:19 - 11:22
   ** Warning ** ControlCompOutput: Maximum iterations exceeded for ZoneHVAC:Baseboard:RadiantConvective:Steam = SPACE3-1 BASEBOARD
   **   ~~~   ** ... Load met       = 960.55315 W.
   **   ~~~   ** ... Load requested = 961.53042 W.
   **   ~~~   ** ... Error          = 0.10163751 %.
   **   ~~~   ** ... Tolerance      = 0.10000000 %.
   **   ~~~   ** ... Error          = (Load met - Load requested) / MAXIMUM(Load requested, 100)
   **   ~~~   ** ... Actuated Node Mass Flow Rate =4.988780404E-004 kg/s
   **   ~~~   **  Environment=Chicago Ohare Intl Ap IL USA TMY3 WMO#=725300, at Simulation time=04/06 08:15 - 08:22
   ** Warning ** ControlCompOutput: Maximum iterations exceeded for ZoneHVAC:Baseboard:RadiantConvective:Steam = SPACE1-1 BASEBOARD
   **   ~~~   ** ... Load met       = 133.23500 W.
   **   ~~~   ** ... Load requested = 133.58667 W.
   **   ~~~   ** ... Error          = 0.26324954 %.
   **   ~~~   ** ... Tolerance      = 0.10000000 %.
   **   ~~~   ** ... Error          = (Load met - Load requested) / MAXIMUM(Load requested, 100)
   **   ~~~   ** ... Actuated Node Mass Flow Rate =6.447554376E-005 kg/s
   **   ~~~   **  Environment=Chicago Ohare Intl Ap IL USA TMY3 WMO#=725300, at Simulation time=04/06 10:08 - 10:15
   ************* Simulation Error Summary *************
   *************
   ************* ===== Recurring Error Summary =====
   ************* The following recurring error messages occurred.
   *************
   *************  ** Warning ** ControlCompOutput: Maximum iterations error for ZoneHVAC:Baseboard:RadiantConvective:Steam = SPACE1-1 BASEBOARD
   *************  **   ~~~   **   This error occurred 36 total times;
   *************  **   ~~~   **   during Warmup 0 times;
   *************  **   ~~~   **   during Sizing 0 times.
   *************  **   ~~~   **   Max=0.86338 %  Min=0.108031 %
   *************
   *************  ** Warning ** ControlCompOutput: Maximum iterations error for ZoneHVAC:Baseboard:RadiantConvective:Steam = SPACE3-1 BASEBOARD
   *************  **   ~~~   **   This error occurred 38 total times;
   *************  **   ~~~   **   during Warmup 0 times;
   *************  **   ~~~   **   during Sizing 0 times.
   *************  **   ~~~   **   Max=0.345088 %  Min=0.101638 %
   *************
   *************  ** Warning ** GetDensityGlycol: Temperature out of range (too high) for fluid [WATER] density **
   *************  **   ~~~   **   This error occurred 412 total times;
   *************  **   ~~~   **   during Warmup 0 times;
   *************  **   ~~~   **   during Sizing 0 times.
   *************  **   ~~~   **   Max=105.810551 {C}  Min=100.227489 {C}
   *************
   *************
   ************* ===== Final Error Summary =====
   ************* The following error categories occurred.  Consider correcting or noting.
   ************* Nominally Unused Constructions
   ************* ..The nominally unused constructions warning is provided to alert you to potential conditions that can cause
   ************* ..extra time during simulation. Each construction is calculated by the algorithm indicated in the HeatBalanceAlgorithm
   ************* ..object. You may remove the constructions indicated (when you use the DisplayExtraWarnings option).
   *************
   ************* EnergyPlus Warmup Error Summary. During Warmup: 0 Warning; 0 Severe Errors.
   ************* EnergyPlus Sizing Error Summary. During Sizing: 1 Warning; 0 Severe Errors.
   ************* EnergyPlus Completed Successfully-- 488 Warning; 0 Severe Errors; Elapsed Time=00hr 00min 12.93sec
