Program Version,EnergyPlus-Windows-64 8.0.0.008, YMD=2015.09.04 23:06,IDD_Version 8.0.0.008
   ** Warning ** Version: in IDF="8.1" not the same as expected="8.0.0"
   ** Warning ** Timestep: Requested number (1) is less than the suggested minimum of 4.
   **   ~~~   ** Please see entry for Timestep in Input/Output Reference for discussion of considerations.
   ************* Beginning Zone Sizing Calculations
   ** Warning ** CheckUsedConstructions: There are 5 nominally unused constructions in input.
   **   ~~~   ** For explicit details on each unused construction, use Output:Diagnostics,DisplayExtraWarnings;
   ************* Beginning System Sizing Calculations
   ************* Testing Individual Branch Integrity
   ************* All Branches passed integrity testing
   ************* Testing Individual Supply Air Path Integrity
   ************* All Supply Air Paths passed integrity testing
   ************* Testing Individual Return Air Path Integrity
   ************* All Return Air Paths passed integrity testing
   ************* No node connection errors were found.
   ************* Beginning Simulation
   ** Warning ** ControlCompOutput: Maximum iterations exceeded for ZoneHVAC:Baseboard:RadiantConvective:Steam = SPACE1-1 BASEBOARD
   **   ~~~   ** ... Load met       = 1866.29807 W.
   **   ~~~   ** ... Load requested = 1868.55761 W.
   **   ~~~   ** ... Error          = 0.12092438 %.
   **   ~~~   ** ... Tolerance      = 0.10000000 %.
   **   ~~~   ** ... Error          = (Load met - Load requested) / MAXIMUM(Load requested, 100)
   **   ~~~   ** ... Actuated Node Mass Flow Rate =1.031557492E-003 kg/s
   **   ~~~   **  Environment=Chicago Ohare Intl Ap IL USA TMY3 WMO#=725300, at Simulation time=01/16 08:00 - 08:12
   ** Warning ** ControlCompOutput: Maximum iterations exceeded for ZoneHVAC:Baseboard:RadiantConvective:Steam = SPACE3-1 BASEBOARD
   **   ~~~   ** ... Load met       = 226.74862 W.
   **   ~~~   ** ... Load requested = 226.06987 W.
   **   ~~~   ** ... Error          = 0.30024149 %.
   **   ~~~   ** ... Tolerance      = 0.10000000 %.
   **   ~~~   ** ... Error          = (Load met - Load requested) / MAXIMUM(Load requested, 100)
   **   ~~~   ** ... Actuated Node Mass Flow Rate =2.338370081E-004 kg/s
   **   ~~~   **  Environment=Chicago Ohare Intl Ap IL USA TMY3 WMO#=725300, at Simulation time=01/16 16:30 - 16:45
   ************* Simulation Error Summary *************
   *************
   ************* ===== Recurring Error Summary =====
   ************* The following recurring error messages occurred.
   *************
   *************  ** Warning ** ControlCompOutput: Maximum iterations error for ZoneHVAC:Baseboard:RadiantConvective:Steam = SPACE1-1 BASEBOARD
   *************  **   ~~~   **   This error occurred 13 total times;
   *************  **   ~~~   **   during Warmup 0 times;
   *************  **   ~~~   **   during Sizing 0 times.
   *************  **   ~~~   **   Max=0.871236 %  Min=0.106791 %
   *************
   *************  ** Warning ** ControlCompOutput: Maximum iterations error for ZoneHVAC:Baseboard:RadiantConvective:Steam = SPACE3-1 BASEBOARD
   *************  **   ~~~   **   This error occurred 20 total times;
   *************  **   ~~~   **   during Warmup 0 times;
   *************  **   ~~~   **   during Sizing 0 times.
   *************  **   ~~~   **   Max=0.782367 %  Min=0.103652 %
   *************
   *************
   ************* ===== Final Error Summary =====
   ************* The following error categories occurred.  Consider correcting or noting.
   ************* Nominally Unused Constructions
   ************* ..The nominally unused constructions warning is provided to alert you to potential conditions that can cause
   ************* ..extra time during simulation. Each construction is calculated by the algorithm indicated in the HeatBalanceAlgorithm
   ************* ..object. You may remove the constructions indicated (when you use the DisplayExtraWarnings option).
   *************
   ************* EnergyPlus Warmup Error Summary. During Warmup: 0 Warning; 0 Severe Errors.
   ************* EnergyPlus Sizing Error Summary. During Sizing: 1 Warning; 0 Severe Errors.
   ************* EnergyPlus Completed Successfully-- 36 Warning; 0 Severe Errors; Elapsed Time=00hr 00min  3.58sec
